# BAS6 package for  MODFLOW-2005, generated by Flopy.
FREE
CONSTANT          1                                #ibound layer 1                
CONSTANT          1                                #ibound layer 2                
CONSTANT          1                                #ibound layer 3                
CONSTANT          1                                #ibound layer 4                
CONSTANT          1                                #ibound layer 5                
CONSTANT          1                                #ibound layer 6                
CONSTANT          1                                #ibound layer 7                
   -999.99
INTERNAL               1 (110E15.6) -1 #strt layer 1                  
   1.000000E+30   1.000000E+30   1.000000E+30   1.000000E+30   1.000000E+30   1.000000E+30   1.000000E+30   1.000000E+30   1.000000E+30   1.000000E+30   1.000000E+30   1.000000E+30   1.000000E+30   1.000000E+30   1.000000E+30   1.000000E+30   1.000000E+30   1.000000E+30   1.000000E+30   1.000000E+30   1.000000E+30   1.000000E+30   1.000000E+30   1.000000E+30   1.000000E+30   1.000000E+30   1.000000E+30   1.000000E+30   1.000000E+30   1.000000E+30   1.000000E+30   1.000000E+30   1.000000E+30   1.000000E+30   1.000000E+30   1.000000E+30   1.000000E+30   1.000000E+30   1.000000E+30   1.000000E+30   1.000000E+30   1.000000E+30   1.000000E+30   1.000000E+30   1.000000E+30   1.000000E+30   1.000000E+30   1.000000E+30   1.000000E+30   1.000000E+30   1.000000E+30   1.000000E+30   1.000000E+30   1.000000E+30   1.000000E+30   1.000000E+30   1.000000E+30   1.000000E+30   1.000000E+30   1.000000E+30   1.000000E+30   1.000000E+30   1.000000E+30   1.000000E+30   1.000000E+30   1.000000E+30   1.000000E+30   1.000000E+30   1.000000E+30   1.000000E+30   1.000000E+30   1.000000E+30   1.000000E+30   1.000000E+30   1.000000E+30   1.000000E+30   1.000000E+30   1.000000E+30   1.000000E+30   1.000000E+30   0.000000E+00   0.000000E+00   0.000000E+00   0.000000E+00   0.000000E+00   0.000000E+00   0.000000E+00   0.000000E+00   0.000000E+00   0.000000E+00   0.000000E+00   0.000000E+00   0.000000E+00   0.000000E+00   0.000000E+00   0.000000E+00   0.000000E+00   0.000000E+00   0.000000E+00   0.000000E+00   0.000000E+00   0.000000E+00   0.000000E+00   0.000000E+00   0.000000E+00   0.000000E+00   0.000000E+00   0.000000E+00   0.000000E+00   0.000000E+00
   1.000000E+30   1.000000E+30   1.000000E+30   1.000000E+30   1.000000E+30   1.000000E+30   1.000000E+30   1.000000E+30   1.000000E+30   1.000000E+30   1.000000E+30   1.000000E+30   1.000000E+30   1.000000E+30   1.000000E+30   1.000000E+30   1.000000E+30   1.000000E+30   1.000000E+30   1.000000E+30   1.000000E+30   1.000000E+30   1.000000E+30   1.000000E+30   1.000000E+30   1.000000E+30   1.000000E+30   1.000000E+30   1.000000E+30   1.000000E+30   1.000000E+30   1.000000E+30   1.000000E+30   1.000000E+30   1.000000E+30   1.000000E+30   1.000000E+30   1.000000E+30   1.000000E+30   1.000000E+30   1.000000E+30   1.000000E+30   1.000000E+30   1.000000E+30   1.000000E+30   1.000000E+30   1.000000E+30   1.000000E+30   1.000000E+30   1.000000E+30   1.000000E+30   1.000000E+30   1.000000E+30   1.000000E+30   1.000000E+30   1.000000E+30   1.000000E+30   1.000000E+30   1.000000E+30   1.000000E+30   1.000000E+30   1.000000E+30   1.000000E+30   1.000000E+30   1.000000E+30   1.000000E+30   1.000000E+30   1.000000E+30   1.000000E+30   1.000000E+30   1.000000E+30   1.000000E+30   1.000000E+30   1.000000E+30   1.000000E+30   1.000000E+30   1.000000E+30   1.000000E+30   1.000000E+30   1.000000E+30   0.000000E+00   0.000000E+00   0.000000E+00   0.000000E+00   0.000000E+00   0.000000E+00   0.000000E+00   0.000000E+00   0.000000E+00   0.000000E+00   0.000000E+00   0.000000E+00   0.000000E+00   0.000000E+00   0.000000E+00   0.000000E+00   0.000000E+00   0.000000E+00   0.000000E+00   0.000000E+00   0.000000E+00   0.000000E+00   0.000000E+00   0.000000E+00   0.000000E+00   0.000000E+00   0.000000E+00   0.000000E+00   0.000000E+00   0.000000E+00
   1.000000E+30   1.000000E+30   1.000000E+30   1.000000E+30   1.000000E+30   1.000000E+30   1.000000E+30   1.000000E+30   1.000000E+30   1.000000E+30   1.000000E+30   1.000000E+30   1.000000E+30   1.000000E+30   1.000000E+30   1.000000E+30   1.000000E+30   1.000000E+30   1.000000E+30   1.000000E+30   1.000000E+30   1.000000E+30   1.000000E+30   1.000000E+30   1.000000E+30   1.000000E+30   1.000000E+30   1.000000E+30   1.000000E+30   1.000000E+30   1.000000E+30   1.000000E+30   1.000000E+30   1.000000E+30   1.000000E+30   1.000000E+30   1.000000E+30   1.000000E+30   1.000000E+30   1.000000E+30   1.000000E+30   1.000000E+30   1.000000E+30   1.000000E+30   1.000000E+30   1.000000E+30   1.000000E+30   1.000000E+30   1.000000E+30   1.000000E+30   1.000000E+30   1.000000E+30   1.000000E+30   1.000000E+30   1.000000E+30   1.000000E+30   1.000000E+30   1.000000E+30   1.000000E+30   1.000000E+30   1.000000E+30   1.000000E+30   1.000000E+30   1.000000E+30   1.000000E+30   1.000000E+30   1.000000E+30   1.000000E+30   1.000000E+30   1.000000E+30   1.000000E+30   1.000000E+30   1.000000E+30   1.000000E+30   1.000000E+30   1.000000E+30   1.000000E+30   1.000000E+30   1.000000E+30   1.000000E+30   0.000000E+00   0.000000E+00   0.000000E+00   0.000000E+00   0.000000E+00   0.000000E+00   0.000000E+00   0.000000E+00   0.000000E+00   0.000000E+00   0.000000E+00   0.000000E+00   0.000000E+00   0.000000E+00   0.000000E+00   0.000000E+00   0.000000E+00   0.000000E+00   0.000000E+00   0.000000E+00   0.000000E+00   0.000000E+00   0.000000E+00   0.000000E+00   0.000000E+00   0.000000E+00   0.000000E+00   0.000000E+00   0.000000E+00   0.000000E+00
   1.000000E+30   1.000000E+30   1.000000E+30   1.000000E+30   1.000000E+30   1.000000E+30   1.000000E+30   1.000000E+30   1.000000E+30   1.000000E+30   1.000000E+30   1.000000E+30   1.000000E+30   1.000000E+30   1.000000E+30   1.000000E+30   1.000000E+30   1.000000E+30   1.000000E+30   1.000000E+30   1.000000E+30   1.000000E+30   1.000000E+30   1.000000E+30   1.000000E+30   1.000000E+30   1.000000E+30   1.000000E+30   1.000000E+30   1.000000E+30   1.000000E+30   1.000000E+30   1.000000E+30   1.000000E+30   1.000000E+30   1.000000E+30   1.000000E+30   1.000000E+30   1.000000E+30   1.000000E+30   1.000000E+30   1.000000E+30   1.000000E+30   1.000000E+30   1.000000E+30   1.000000E+30   1.000000E+30   1.000000E+30   1.000000E+30   1.000000E+30   1.000000E+30   1.000000E+30   1.000000E+30   1.000000E+30   1.000000E+30   1.000000E+30   1.000000E+30   1.000000E+30   1.000000E+30   1.000000E+30   1.000000E+30   1.000000E+30   1.000000E+30   1.000000E+30   1.000000E+30   1.000000E+30   1.000000E+30   1.000000E+30   1.000000E+30   1.000000E+30   1.000000E+30   1.000000E+30   1.000000E+30   1.000000E+30   1.000000E+30   1.000000E+30   1.000000E+30   1.000000E+30   1.000000E+30   1.000000E+30   0.000000E+00   0.000000E+00   0.000000E+00   0.000000E+00   0.000000E+00   0.000000E+00   0.000000E+00   0.000000E+00   0.000000E+00   0.000000E+00   0.000000E+00   0.000000E+00   0.000000E+00   0.000000E+00   0.000000E+00   0.000000E+00   0.000000E+00   0.000000E+00   0.000000E+00   0.000000E+00   0.000000E+00   0.000000E+00   0.000000E+00   0.000000E+00   0.000000E+00   0.000000E+00   0.000000E+00   0.000000E+00   0.000000E+00   0.000000E+00
   1.000000E+30   1.000000E+30   1.000000E+30   1.000000E+30   1.000000E+30   1.000000E+30   1.000000E+30   1.000000E+30   1.000000E+30   1.000000E+30   1.000000E+30   1.000000E+30   1.000000E+30   1.000000E+30   1.000000E+30   1.000000E+30   1.000000E+30   1.000000E+30   1.000000E+30   1.000000E+30   1.000000E+30   1.000000E+30   1.000000E+30   1.000000E+30   1.000000E+30   1.000000E+30   1.000000E+30   1.000000E+30   1.000000E+30   1.000000E+30   1.000000E+30   1.000000E+30   1.000000E+30   1.000000E+30   1.000000E+30   1.000000E+30   1.000000E+30   1.000000E+30   1.000000E+30   1.000000E+30   1.000000E+30   1.000000E+30   1.000000E+30   1.000000E+30   1.000000E+30   1.000000E+30   1.000000E+30   1.000000E+30   1.000000E+30   1.000000E+30   1.000000E+30   1.000000E+30   1.000000E+30   1.000000E+30   1.000000E+30   1.000000E+30   1.000000E+30   1.000000E+30   1.000000E+30   1.000000E+30   1.000000E+30   1.000000E+30   1.000000E+30   1.000000E+30   1.000000E+30   1.000000E+30   1.000000E+30   1.000000E+30   1.000000E+30   1.000000E+30   1.000000E+30   1.000000E+30   1.000000E+30   1.000000E+30   1.000000E+30   1.000000E+30   1.000000E+30   1.000000E+30   1.000000E+30   1.000000E+30   0.000000E+00   0.000000E+00   0.000000E+00   0.000000E+00   0.000000E+00   0.000000E+00   0.000000E+00   0.000000E+00   0.000000E+00   0.000000E+00   0.000000E+00   0.000000E+00   0.000000E+00   0.000000E+00   0.000000E+00   0.000000E+00   0.000000E+00   0.000000E+00   0.000000E+00   0.000000E+00   0.000000E+00   0.000000E+00   0.000000E+00   0.000000E+00   0.000000E+00   0.000000E+00   0.000000E+00   0.000000E+00   0.000000E+00   0.000000E+00
   1.000000E+30   1.000000E+30   1.000000E+30   1.000000E+30   1.000000E+30   1.000000E+30   1.000000E+30   1.000000E+30   1.000000E+30   1.000000E+30   1.000000E+30   1.000000E+30   1.000000E+30   1.000000E+30   1.000000E+30   1.000000E+30   1.000000E+30   1.000000E+30   1.000000E+30   1.000000E+30   1.000000E+30   1.000000E+30   1.000000E+30   1.000000E+30   1.000000E+30   1.000000E+30   1.000000E+30   1.000000E+30   1.000000E+30   1.000000E+30   1.000000E+30   1.000000E+30   1.000000E+30   1.000000E+30   1.000000E+30   1.000000E+30   1.000000E+30   1.000000E+30   1.000000E+30   1.000000E+30   1.000000E+30   1.000000E+30   1.000000E+30   1.000000E+30   1.000000E+30   1.000000E+30   1.000000E+30   1.000000E+30   1.000000E+30   1.000000E+30   1.000000E+30   1.000000E+30   1.000000E+30   1.000000E+30   1.000000E+30   1.000000E+30   1.000000E+30   1.000000E+30   1.000000E+30   1.000000E+30   1.000000E+30   1.000000E+30   1.000000E+30   1.000000E+30   1.000000E+30   1.000000E+30   1.000000E+30   1.000000E+30   1.000000E+30   1.000000E+30   1.000000E+30   1.000000E+30   1.000000E+30   1.000000E+30   1.000000E+30   1.000000E+30   1.000000E+30   1.000000E+30   1.000000E+30   1.000000E+30   0.000000E+00   0.000000E+00   0.000000E+00   0.000000E+00   0.000000E+00   0.000000E+00   0.000000E+00   0.000000E+00   0.000000E+00   0.000000E+00   0.000000E+00   0.000000E+00   0.000000E+00   0.000000E+00   0.000000E+00   0.000000E+00   0.000000E+00   0.000000E+00   0.000000E+00   0.000000E+00   0.000000E+00   0.000000E+00   0.000000E+00   0.000000E+00   0.000000E+00   0.000000E+00   0.000000E+00   0.000000E+00   0.000000E+00   0.000000E+00
   1.000000E+30   1.000000E+30   1.000000E+30   1.000000E+30   1.000000E+30   1.000000E+30   1.000000E+30   1.000000E+30   1.000000E+30   1.000000E+30   1.000000E+30   1.000000E+30   1.000000E+30   1.000000E+30   1.000000E+30   1.000000E+30   1.000000E+30   1.000000E+30   1.000000E+30   1.000000E+30   1.000000E+30   1.000000E+30   1.000000E+30   1.000000E+30   1.000000E+30   1.000000E+30   1.000000E+30   1.000000E+30   1.000000E+30   1.000000E+30   1.000000E+30   1.000000E+30   1.000000E+30   1.000000E+30   1.000000E+30   1.000000E+30   1.000000E+30   1.000000E+30   1.000000E+30   1.000000E+30   1.000000E+30   1.000000E+30   1.000000E+30   1.000000E+30   1.000000E+30   1.000000E+30   1.000000E+30   1.000000E+30   1.000000E+30   1.000000E+30   1.000000E+30   1.000000E+30   1.000000E+30   1.000000E+30   1.000000E+30   1.000000E+30   1.000000E+30   1.000000E+30   1.000000E+30   1.000000E+30   1.000000E+30   1.000000E+30   1.000000E+30   1.000000E+30   1.000000E+30   1.000000E+30   1.000000E+30   1.000000E+30   1.000000E+30   1.000000E+30   1.000000E+30   1.000000E+30   1.000000E+30   1.000000E+30   1.000000E+30   1.000000E+30   1.000000E+30   1.000000E+30   1.000000E+30   1.000000E+30   0.000000E+00   0.000000E+00   0.000000E+00   0.000000E+00   0.000000E+00   0.000000E+00   0.000000E+00   0.000000E+00   0.000000E+00   0.000000E+00   0.000000E+00   0.000000E+00   0.000000E+00   0.000000E+00   0.000000E+00   0.000000E+00   0.000000E+00   0.000000E+00   0.000000E+00   0.000000E+00   0.000000E+00   0.000000E+00   0.000000E+00   0.000000E+00   0.000000E+00   0.000000E+00   0.000000E+00   0.000000E+00   0.000000E+00   0.000000E+00
   1.000000E+30   1.000000E+30   1.000000E+30   1.000000E+30   1.000000E+30   1.000000E+30   1.000000E+30   1.000000E+30   1.000000E+30   1.000000E+30   1.000000E+30   1.000000E+30   1.000000E+30   1.000000E+30   1.000000E+30   1.000000E+30   1.000000E+30   1.000000E+30   1.000000E+30   1.000000E+30   1.000000E+30   1.000000E+30   1.000000E+30   1.000000E+30   1.000000E+30   1.000000E+30   1.000000E+30   1.000000E+30   1.000000E+30   1.000000E+30   1.000000E+30   1.000000E+30   1.000000E+30   1.000000E+30   1.000000E+30   1.000000E+30   1.000000E+30   1.000000E+30   1.000000E+30   1.000000E+30   1.000000E+30   1.000000E+30   1.000000E+30   1.000000E+30   1.000000E+30   1.000000E+30   1.000000E+30   1.000000E+30   1.000000E+30   1.000000E+30   1.000000E+30   1.000000E+30   1.000000E+30   1.000000E+30   1.000000E+30   1.000000E+30   1.000000E+30   1.000000E+30   1.000000E+30   1.000000E+30   1.000000E+30   1.000000E+30   1.000000E+30   1.000000E+30   1.000000E+30   1.000000E+30   1.000000E+30   1.000000E+30   1.000000E+30   1.000000E+30   1.000000E+30   1.000000E+30   1.000000E+30   1.000000E+30   1.000000E+30   1.000000E+30   1.000000E+30   1.000000E+30   1.000000E+30   1.000000E+30   0.000000E+00   0.000000E+00   0.000000E+00   0.000000E+00   0.000000E+00   0.000000E+00   0.000000E+00   0.000000E+00   0.000000E+00   0.000000E+00   0.000000E+00   0.000000E+00   0.000000E+00   0.000000E+00   0.000000E+00   0.000000E+00   0.000000E+00   0.000000E+00   0.000000E+00   0.000000E+00   0.000000E+00   0.000000E+00   0.000000E+00   0.000000E+00   0.000000E+00   0.000000E+00   0.000000E+00   0.000000E+00   0.000000E+00   0.000000E+00
   1.000000E+30   1.000000E+30   1.000000E+30   1.000000E+30   1.000000E+30   1.000000E+30   1.000000E+30   1.000000E+30   1.000000E+30   1.000000E+30   1.000000E+30   1.000000E+30   1.000000E+30   1.000000E+30   1.000000E+30   1.000000E+30   1.000000E+30   1.000000E+30   1.000000E+30   1.000000E+30   1.000000E+30   1.000000E+30   1.000000E+30   1.000000E+30   1.000000E+30   1.000000E+30   1.000000E+30   1.000000E+30   1.000000E+30   1.000000E+30   1.000000E+30   1.000000E+30   1.000000E+30   1.000000E+30   1.000000E+30   1.000000E+30   1.000000E+30   1.000000E+30   1.000000E+30   1.000000E+30   1.000000E+30   1.000000E+30   1.000000E+30   1.000000E+30   1.000000E+30   1.000000E+30   1.000000E+30   1.000000E+30   1.000000E+30   1.000000E+30   1.000000E+30   1.000000E+30   1.000000E+30   1.000000E+30   1.000000E+30   1.000000E+30   1.000000E+30   1.000000E+30   1.000000E+30   1.000000E+30   1.000000E+30   1.000000E+30   1.000000E+30   1.000000E+30   1.000000E+30   1.000000E+30   1.000000E+30   1.000000E+30   1.000000E+30   1.000000E+30   1.000000E+30   1.000000E+30   1.000000E+30   1.000000E+30   1.000000E+30   1.000000E+30   1.000000E+30   1.000000E+30   1.000000E+30   1.000000E+30   0.000000E+00   0.000000E+00   0.000000E+00   0.000000E+00   0.000000E+00   0.000000E+00   0.000000E+00   0.000000E+00   0.000000E+00   0.000000E+00   0.000000E+00   0.000000E+00   0.000000E+00   0.000000E+00   0.000000E+00   0.000000E+00   0.000000E+00   0.000000E+00   0.000000E+00   0.000000E+00   0.000000E+00   0.000000E+00   0.000000E+00   0.000000E+00   0.000000E+00   0.000000E+00   0.000000E+00   0.000000E+00   0.000000E+00   0.000000E+00
   1.000000E+30   1.000000E+30   1.000000E+30   1.000000E+30   1.000000E+30   1.000000E+30   1.000000E+30   1.000000E+30   1.000000E+30   1.000000E+30   1.000000E+30   1.000000E+30   1.000000E+30   1.000000E+30   1.000000E+30   1.000000E+30   1.000000E+30   1.000000E+30   1.000000E+30   1.000000E+30   1.000000E+30   1.000000E+30   1.000000E+30   1.000000E+30   1.000000E+30   1.000000E+30   1.000000E+30   1.000000E+30   1.000000E+30   1.000000E+30   1.000000E+30   1.000000E+30   1.000000E+30   1.000000E+30   1.000000E+30   1.000000E+30   1.000000E+30   1.000000E+30   1.000000E+30   1.000000E+30   1.000000E+30   1.000000E+30   1.000000E+30   1.000000E+30   1.000000E+30   1.000000E+30   1.000000E+30   1.000000E+30   1.000000E+30   1.000000E+30   1.000000E+30   1.000000E+30   1.000000E+30   1.000000E+30   1.000000E+30   1.000000E+30   1.000000E+30   1.000000E+30   1.000000E+30   1.000000E+30   1.000000E+30   1.000000E+30   1.000000E+30   1.000000E+30   1.000000E+30   1.000000E+30   1.000000E+30   1.000000E+30   1.000000E+30   1.000000E+30   1.000000E+30   1.000000E+30   1.000000E+30   1.000000E+30   1.000000E+30   1.000000E+30   1.000000E+30   1.000000E+30   1.000000E+30   1.000000E+30   0.000000E+00   0.000000E+00   0.000000E+00   0.000000E+00   0.000000E+00   0.000000E+00   0.000000E+00   0.000000E+00   0.000000E+00   0.000000E+00   0.000000E+00   0.000000E+00   0.000000E+00   0.000000E+00   0.000000E+00   0.000000E+00   0.000000E+00   0.000000E+00   0.000000E+00   0.000000E+00   0.000000E+00   0.000000E+00   0.000000E+00   0.000000E+00   0.000000E+00   0.000000E+00   0.000000E+00   0.000000E+00   0.000000E+00   0.000000E+00
   1.000000E+30   1.000000E+30   1.000000E+30   1.000000E+30   1.000000E+30   1.000000E+30   1.000000E+30   1.000000E+30   1.000000E+30   1.000000E+30   1.000000E+30   1.000000E+30   1.000000E+30   1.000000E+30   1.000000E+30   1.000000E+30   1.000000E+30   1.000000E+30   1.000000E+30   1.000000E+30   1.000000E+30   1.000000E+30   1.000000E+30   1.000000E+30   1.000000E+30   1.000000E+30   1.000000E+30   1.000000E+30   1.000000E+30   1.000000E+30   1.000000E+30   1.000000E+30   1.000000E+30   1.000000E+30   1.000000E+30   1.000000E+30   1.000000E+30   1.000000E+30   1.000000E+30   1.000000E+30   1.000000E+30   1.000000E+30   1.000000E+30   1.000000E+30   1.000000E+30   1.000000E+30   1.000000E+30   1.000000E+30   1.000000E+30   1.000000E+30   1.000000E+30   1.000000E+30   1.000000E+30   1.000000E+30   1.000000E+30   1.000000E+30   1.000000E+30   1.000000E+30   1.000000E+30   1.000000E+30   1.000000E+30   1.000000E+30   1.000000E+30   1.000000E+30   1.000000E+30   1.000000E+30   1.000000E+30   1.000000E+30   1.000000E+30   1.000000E+30   1.000000E+30   1.000000E+30   1.000000E+30   1.000000E+30   1.000000E+30   1.000000E+30   1.000000E+30   1.000000E+30   1.000000E+30   1.000000E+30   0.000000E+00   0.000000E+00   0.000000E+00   0.000000E+00   0.000000E+00   0.000000E+00   0.000000E+00   0.000000E+00   0.000000E+00   0.000000E+00   0.000000E+00   0.000000E+00   0.000000E+00   0.000000E+00   0.000000E+00   0.000000E+00   0.000000E+00   0.000000E+00   0.000000E+00   0.000000E+00   0.000000E+00   0.000000E+00   0.000000E+00   0.000000E+00   0.000000E+00   0.000000E+00   0.000000E+00   0.000000E+00   0.000000E+00   0.000000E+00
   1.000000E+30   1.000000E+30   1.000000E+30   1.000000E+30   1.000000E+30   1.000000E+30   1.000000E+30   1.000000E+30   1.000000E+30   1.000000E+30   1.000000E+30   1.000000E+30   1.000000E+30   1.000000E+30   1.000000E+30   1.000000E+30   1.000000E+30   1.000000E+30   1.000000E+30   1.000000E+30   1.000000E+30   1.000000E+30   1.000000E+30   1.000000E+30   1.000000E+30   1.000000E+30   1.000000E+30   1.000000E+30   1.000000E+30   1.000000E+30   1.000000E+30   1.000000E+30   1.000000E+30   1.000000E+30   1.000000E+30   1.000000E+30   1.000000E+30   1.000000E+30   1.000000E+30   1.000000E+30   1.000000E+30   1.000000E+30   1.000000E+30   1.000000E+30   1.000000E+30   1.000000E+30   1.000000E+30   1.000000E+30   1.000000E+30   1.000000E+30   1.000000E+30   1.000000E+30   1.000000E+30   1.000000E+30   1.000000E+30   1.000000E+30   1.000000E+30   1.000000E+30   1.000000E+30   1.000000E+30   1.000000E+30   1.000000E+30   1.000000E+30   1.000000E+30   1.000000E+30   1.000000E+30   1.000000E+30   1.000000E+30   1.000000E+30   1.000000E+30   1.000000E+30   1.000000E+30   1.000000E+30   1.000000E+30   1.000000E+30   1.000000E+30   1.000000E+30   1.000000E+30   1.000000E+30   1.000000E+30   0.000000E+00   0.000000E+00   0.000000E+00   0.000000E+00   0.000000E+00   0.000000E+00   0.000000E+00   0.000000E+00   0.000000E+00   0.000000E+00   0.000000E+00   0.000000E+00   0.000000E+00   0.000000E+00   0.000000E+00   0.000000E+00   0.000000E+00   0.000000E+00   0.000000E+00   0.000000E+00   0.000000E+00   0.000000E+00   0.000000E+00   0.000000E+00   0.000000E+00   0.000000E+00   0.000000E+00   0.000000E+00   0.000000E+00   0.000000E+00
   1.000000E+30   1.000000E+30   1.000000E+30   1.000000E+30   1.000000E+30   1.000000E+30   1.000000E+30   1.000000E+30   1.000000E+30   1.000000E+30   1.000000E+30   1.000000E+30   1.000000E+30   1.000000E+30   1.000000E+30   1.000000E+30   1.000000E+30   1.000000E+30   1.000000E+30   1.000000E+30   1.000000E+30   1.000000E+30   1.000000E+30   1.000000E+30   1.000000E+30   1.000000E+30   1.000000E+30   1.000000E+30   1.000000E+30   1.000000E+30   1.000000E+30   1.000000E+30   1.000000E+30   1.000000E+30   1.000000E+30   1.000000E+30   1.000000E+30   1.000000E+30   1.000000E+30   1.000000E+30   1.000000E+30   1.000000E+30   1.000000E+30   1.000000E+30   1.000000E+30   1.000000E+30   1.000000E+30   1.000000E+30   1.000000E+30   1.000000E+30   1.000000E+30   1.000000E+30   1.000000E+30   1.000000E+30   1.000000E+30   1.000000E+30   1.000000E+30   1.000000E+30   1.000000E+30   1.000000E+30   1.000000E+30   1.000000E+30   1.000000E+30   1.000000E+30   1.000000E+30   1.000000E+30   1.000000E+30   1.000000E+30   1.000000E+30   1.000000E+30   1.000000E+30   1.000000E+30   1.000000E+30   1.000000E+30   1.000000E+30   1.000000E+30   1.000000E+30   1.000000E+30   1.000000E+30   1.000000E+30   0.000000E+00   0.000000E+00   0.000000E+00   0.000000E+00   0.000000E+00   0.000000E+00   0.000000E+00   0.000000E+00   0.000000E+00   0.000000E+00   0.000000E+00   0.000000E+00   0.000000E+00   0.000000E+00   0.000000E+00   0.000000E+00   0.000000E+00   0.000000E+00   0.000000E+00   0.000000E+00   0.000000E+00   0.000000E+00   0.000000E+00   0.000000E+00   0.000000E+00   0.000000E+00   0.000000E+00   0.000000E+00   0.000000E+00   0.000000E+00
   1.000000E+30   1.000000E+30   1.000000E+30   1.000000E+30   1.000000E+30   1.000000E+30   1.000000E+30   1.000000E+30   1.000000E+30   1.000000E+30   1.000000E+30   1.000000E+30   1.000000E+30   1.000000E+30   1.000000E+30   1.000000E+30   1.000000E+30   1.000000E+30   1.000000E+30   1.000000E+30   1.000000E+30   1.000000E+30   1.000000E+30   1.000000E+30   1.000000E+30   1.000000E+30   1.000000E+30   1.000000E+30   1.000000E+30   1.000000E+30   1.000000E+30   1.000000E+30   1.000000E+30   1.000000E+30   1.000000E+30   1.000000E+30   1.000000E+30   1.000000E+30   1.000000E+30   1.000000E+30   1.000000E+30   1.000000E+30   1.000000E+30   1.000000E+30   1.000000E+30   1.000000E+30   1.000000E+30   1.000000E+30   1.000000E+30   1.000000E+30   1.000000E+30   1.000000E+30   1.000000E+30   1.000000E+30   1.000000E+30   1.000000E+30   1.000000E+30   1.000000E+30   1.000000E+30   1.000000E+30   1.000000E+30   1.000000E+30   1.000000E+30   1.000000E+30   1.000000E+30   1.000000E+30   1.000000E+30   1.000000E+30   1.000000E+30   1.000000E+30   1.000000E+30   1.000000E+30   1.000000E+30   1.000000E+30   1.000000E+30   1.000000E+30   1.000000E+30   1.000000E+30   1.000000E+30   1.000000E+30   0.000000E+00   0.000000E+00   0.000000E+00   0.000000E+00   0.000000E+00   0.000000E+00   0.000000E+00   0.000000E+00   0.000000E+00   0.000000E+00   0.000000E+00   0.000000E+00   0.000000E+00   0.000000E+00   0.000000E+00   0.000000E+00   0.000000E+00   0.000000E+00   0.000000E+00   0.000000E+00   0.000000E+00   0.000000E+00   0.000000E+00   0.000000E+00   0.000000E+00   0.000000E+00   0.000000E+00   0.000000E+00   0.000000E+00   0.000000E+00
   1.000000E+30   1.000000E+30   1.000000E+30   1.000000E+30   1.000000E+30   1.000000E+30   1.000000E+30   1.000000E+30   1.000000E+30   1.000000E+30   1.000000E+30   1.000000E+30   1.000000E+30   1.000000E+30   1.000000E+30   1.000000E+30   1.000000E+30   1.000000E+30   1.000000E+30   1.000000E+30   1.000000E+30   1.000000E+30   1.000000E+30   1.000000E+30   1.000000E+30   1.000000E+30   1.000000E+30   1.000000E+30   1.000000E+30   1.000000E+30   1.000000E+30   1.000000E+30   1.000000E+30   1.000000E+30   1.000000E+30   1.000000E+30   1.000000E+30   1.000000E+30   1.000000E+30   1.000000E+30   1.000000E+30   1.000000E+30   1.000000E+30   1.000000E+30   1.000000E+30   1.000000E+30   1.000000E+30   1.000000E+30   1.000000E+30   1.000000E+30   1.000000E+30   1.000000E+30   1.000000E+30   1.000000E+30   1.000000E+30   1.000000E+30   1.000000E+30   1.000000E+30   1.000000E+30   1.000000E+30   1.000000E+30   1.000000E+30   1.000000E+30   1.000000E+30   1.000000E+30   1.000000E+30   1.000000E+30   1.000000E+30   1.000000E+30   1.000000E+30   1.000000E+30   1.000000E+30   1.000000E+30   1.000000E+30   1.000000E+30   1.000000E+30   1.000000E+30   1.000000E+30   1.000000E+30   1.000000E+30   0.000000E+00   0.000000E+00   0.000000E+00   0.000000E+00   0.000000E+00   0.000000E+00   0.000000E+00   0.000000E+00   0.000000E+00   0.000000E+00   0.000000E+00   0.000000E+00   0.000000E+00   0.000000E+00   0.000000E+00   0.000000E+00   0.000000E+00   0.000000E+00   0.000000E+00   0.000000E+00   0.000000E+00   0.000000E+00   0.000000E+00   0.000000E+00   0.000000E+00   0.000000E+00   0.000000E+00   0.000000E+00   0.000000E+00   0.000000E+00
   1.000000E+30   1.000000E+30   1.000000E+30   1.000000E+30   1.000000E+30   1.000000E+30   1.000000E+30   1.000000E+30   1.000000E+30   1.000000E+30   1.000000E+30   1.000000E+30   1.000000E+30   1.000000E+30   1.000000E+30   1.000000E+30   1.000000E+30   1.000000E+30   1.000000E+30   1.000000E+30   1.000000E+30   1.000000E+30   1.000000E+30   1.000000E+30   1.000000E+30   1.000000E+30   1.000000E+30   1.000000E+30   1.000000E+30   1.000000E+30   1.000000E+30   1.000000E+30   1.000000E+30   1.000000E+30   1.000000E+30   1.000000E+30   1.000000E+30   1.000000E+30   1.000000E+30   1.000000E+30   1.000000E+30   1.000000E+30   1.000000E+30   1.000000E+30   1.000000E+30   1.000000E+30   1.000000E+30   1.000000E+30   1.000000E+30   1.000000E+30   1.000000E+30   1.000000E+30   1.000000E+30   1.000000E+30   1.000000E+30   1.000000E+30   1.000000E+30   1.000000E+30   1.000000E+30   1.000000E+30   1.000000E+30   1.000000E+30   1.000000E+30   1.000000E+30   1.000000E+30   1.000000E+30   1.000000E+30   1.000000E+30   1.000000E+30   1.000000E+30   1.000000E+30   1.000000E+30   1.000000E+30   1.000000E+30   1.000000E+30   1.000000E+30   1.000000E+30   1.000000E+30   1.000000E+30   1.000000E+30   0.000000E+00   0.000000E+00   0.000000E+00   0.000000E+00   0.000000E+00   0.000000E+00   0.000000E+00   0.000000E+00   0.000000E+00   0.000000E+00   0.000000E+00   0.000000E+00   0.000000E+00   0.000000E+00   0.000000E+00   0.000000E+00   0.000000E+00   0.000000E+00   0.000000E+00   0.000000E+00   0.000000E+00   0.000000E+00   0.000000E+00   0.000000E+00   0.000000E+00   0.000000E+00   0.000000E+00   0.000000E+00   0.000000E+00   0.000000E+00
   1.000000E+30   1.000000E+30   1.000000E+30   1.000000E+30   1.000000E+30   1.000000E+30   1.000000E+30   1.000000E+30   1.000000E+30   1.000000E+30   1.000000E+30   1.000000E+30   1.000000E+30   1.000000E+30   1.000000E+30   1.000000E+30   1.000000E+30   1.000000E+30   1.000000E+30   1.000000E+30   1.000000E+30   1.000000E+30   1.000000E+30   1.000000E+30   1.000000E+30   1.000000E+30   1.000000E+30   1.000000E+30   1.000000E+30   1.000000E+30   1.000000E+30   1.000000E+30   1.000000E+30   1.000000E+30   1.000000E+30   1.000000E+30   1.000000E+30   1.000000E+30   1.000000E+30   1.000000E+30   1.000000E+30   1.000000E+30   1.000000E+30   1.000000E+30   1.000000E+30   1.000000E+30   1.000000E+30   1.000000E+30   1.000000E+30   1.000000E+30   1.000000E+30   1.000000E+30   1.000000E+30   1.000000E+30   1.000000E+30   1.000000E+30   1.000000E+30   1.000000E+30   1.000000E+30   1.000000E+30   1.000000E+30   1.000000E+30   1.000000E+30   1.000000E+30   1.000000E+30   1.000000E+30   1.000000E+30   1.000000E+30   1.000000E+30   1.000000E+30   1.000000E+30   1.000000E+30   1.000000E+30   1.000000E+30   1.000000E+30   1.000000E+30   1.000000E+30   1.000000E+30   1.000000E+30   1.000000E+30   0.000000E+00   0.000000E+00   0.000000E+00   0.000000E+00   0.000000E+00   0.000000E+00   0.000000E+00   0.000000E+00   0.000000E+00   0.000000E+00   0.000000E+00   0.000000E+00   0.000000E+00   0.000000E+00   0.000000E+00   0.000000E+00   0.000000E+00   0.000000E+00   0.000000E+00   0.000000E+00   0.000000E+00   0.000000E+00   0.000000E+00   0.000000E+00   0.000000E+00   0.000000E+00   0.000000E+00   0.000000E+00   0.000000E+00   0.000000E+00