# DIS package for  MODFLOW-2005, generated by Flopy.
         7       140       110         1         4         2
  0  0  0  0  0  0  0
CONSTANT    1.000000E+01                           #delr                          
CONSTANT    1.000000E+01                           #delc                          
INTERNAL               1 (110E15.6) -1 #model_top                     
   7.901700E+00   7.901700E+00   7.901700E+00   7.901700E+00   7.901700E+00   7.901700E+00   7.901700E+00   7.901700E+00   7.901700E+00   7.901700E+00   8.260300E+00   8.260300E+00   8.260300E+00   8.260300E+00   8.260300E+00   8.260300E+00   8.260300E+00   8.260300E+00   8.260300E+00   8.260300E+00   7.856100E+00   7.856100E+00   7.856100E+00   7.856100E+00   7.856100E+00   7.856100E+00   7.856100E+00   7.856100E+00   7.856100E+00   7.856100E+00   7.414200E+00   7.414200E+00   7.414200E+00   7.414200E+00   7.414200E+00   7.414200E+00   7.414200E+00   7.414200E+00   7.414200E+00   7.414200E+00   7.124600E+00   7.124600E+00   7.124600E+00   7.124600E+00   7.124600E+00   7.124600E+00   7.124600E+00   7.124600E+00   7.124600E+00   7.124600E+00   5.242200E+00   5.242200E+00   5.242200E+00   5.242200E+00   5.242200E+00   5.242200E+00   5.242200E+00   5.242200E+00   5.242200E+00   5.242200E+00   2.841900E+00   2.841900E+00   2.841900E+00   2.841900E+00   2.841900E+00   2.841900E+00   2.841900E+00   2.841900E+00   2.841900E+00   2.841900E+00   1.152800E+00   1.152800E+00   1.152800E+00   1.152800E+00   1.152800E+00   1.152800E+00   1.152800E+00   1.152800E+00   1.152800E+00   1.152800E+00   2.795700E-01   2.795700E-01   2.795700E-01   2.795700E-01   2.795700E-01   2.795700E-01   2.795700E-01   2.795700E-01   2.795700E-01   2.795700E-01   0.000000E+00   0.000000E+00   0.000000E+00   0.000000E+00   0.000000E+00   0.000000E+00   0.000000E+00   0.000000E+00   0.000000E+00   0.000000E+00   0.000000E+00   0.000000E+00   0.000000E+00   0.000000E+00   0.000000E+00   0.000000E+00   0.000000E+00   0.000000E+00   0.000000E+00   0.000000E+00
   7.901700E+00   7.901700E+00   7.901700E+00   7.901700E+00   7.901700E+00   7.901700E+00   7.901700E+00   7.901700E+00   7.901700E+00   7.901700E+00   8.260300E+00   8.260300E+00   8.260300E+00   8.260300E+00   8.260300E+00   8.260300E+00   8.260300E+00   8.260300E+00   8.260300E+00   8.260300E+00   7.856100E+00   7.856100E+00   7.856100E+00   7.856100E+00   7.856100E+00   7.856100E+00   7.856100E+00   7.856100E+00   7.856100E+00   7.856100E+00   7.414200E+00   7.414200E+00   7.414200E+00   7.414200E+00   7.414200E+00   7.414200E+00   7.414200E+00   7.414200E+00   7.414200E+00   7.414200E+00   7.124600E+00   7.124600E+00   7.124600E+00   7.124600E+00   7.124600E+00   7.124600E+00   7.124600E+00   7.124600E+00   7.124600E+00   7.124600E+00   5.242200E+00   5.242200E+00   5.242200E+00   5.242200E+00   5.242200E+00   5.242200E+00   5.242200E+00   5.242200E+00   5.242200E+00   5.242200E+00   2.841900E+00   2.841900E+00   2.841900E+00   2.841900E+00   2.841900E+00   2.841900E+00   2.841900E+00   2.841900E+00   2.841900E+00   2.841900E+00   1.152800E+00   1.152800E+00   1.152800E+00   1.152800E+00   1.152800E+00   1.152800E+00   1.152800E+00   1.152800E+00   1.152800E+00   1.152800E+00   2.795700E-01   2.795700E-01   2.795700E-01   2.795700E-01   2.795700E-01   2.795700E-01   2.795700E-01   2.795700E-01   2.795700E-01   2.795700E-01   0.000000E+00   0.000000E+00   0.000000E+00   0.000000E+00   0.000000E+00   0.000000E+00   0.000000E+00   0.000000E+00   0.000000E+00   0.000000E+00   0.000000E+00   0.000000E+00   0.000000E+00   0.000000E+00   0.000000E+00   0.000000E+00   0.000000E+00   0.000000E+00   0.000000E+00   0.000000E+00
   7.901700E+00   7.901700E+00   7.901700E+00   7.901700E+00   7.901700E+00   7.901700E+00   7.901700E+00   7.901700E+00   7.901700E+00   7.901700E+00   8.260300E+00   8.260300E+00   8.260300E+00   8.260300E+00   8.260300E+00   8.260300E+00   8.260300E+00   8.260300E+00   8.260300E+00   8.260300E+00   7.856100E+00   7.856100E+00   7.856100E+00   7.856100E+00   7.856100E+00   7.856100E+00   7.856100E+00   7.856100E+00   7.856100E+00   7.856100E+00   7.414200E+00   7.414200E+00   7.414200E+00   7.414200E+00   7.414200E+00   7.414200E+00   7.414200E+00   7.414200E+00   7.414200E+00   7.414200E+00   7.124600E+00   7.124600E+00   7.124600E+00   7.124600E+00   7.124600E+00   7.124600E+00   7.124600E+00   7.124600E+00   7.124600E+00   7.124600E+00   5.242200E+00   5.242200E+00   5.242200E+00   5.242200E+00   5.242200E+00   5.242200E+00   5.242200E+00   5.242200E+00   5.242200E+00   5.242200E+00   2.841900E+00   2.841900E+00   2.841900E+00   2.841900E+00   2.841900E+00   2.841900E+00   2.841900E+00   2.841900E+00   2.841900E+00   2.841900E+00   1.152800E+00   1.152800E+00   1.152800E+00   1.152800E+00   1.152800E+00   1.152800E+00   1.152800E+00   1.152800E+00   1.152800E+00   1.152800E+00   2.795700E-01   2.795700E-01   2.795700E-01   2.795700E-01   2.795700E-01   2.795700E-01   2.795700E-01   2.795700E-01   2.795700E-01   2.795700E-01   0.000000E+00   0.000000E+00   0.000000E+00   0.000000E+00   0.000000E+00   0.000000E+00   0.000000E+00   0.000000E+00   0.000000E+00   0.000000E+00   0.000000E+00   0.000000E+00   0.000000E+00   0.000000E+00   0.000000E+00   0.000000E+00   0.000000E+00   0.000000E+00   0.000000E+00   0.000000E+00
   7.901700E+00   7.901700E+00   7.901700E+00   7.901700E+00   7.901700E+00   7.901700E+00   7.901700E+00   7.901700E+00   7.901700E+00   7.901700E+00   8.260300E+00   8.260300E+00   8.260300E+00   8.260300E+00   8.260300E+00   8.260300E+00   8.260300E+00   8.260300E+00   8.260300E+00   8.260300E+00   7.856100E+00   7.856100E+00   7.856100E+00   7.856100E+00   7.856100E+00   7.856100E+00   7.856100E+00   7.856100E+00   7.856100E+00   7.856100E+00   7.414200E+00   7.414200E+00   7.414200E+00   7.414200E+00   7.414200E+00   7.414200E+00   7.414200E+00   7.414200E+00   7.414200E+00   7.414200E+00   7.124600E+00   7.124600E+00   7.124600E+00   7.124600E+00   7.124600E+00   7.124600E+00   7.124600E+00   7.124600E+00   7.124600E+00   7.124600E+00   5.242200E+00   5.242200E+00   5.242200E+00   5.242200E+00   5.242200E+00   5.242200E+00   5.242200E+00   5.242200E+00   5.242200E+00   5.242200E+00   2.841900E+00   2.841900E+00   2.841900E+00   2.841900E+00   2.841900E+00   2.841900E+00   2.841900E+00   2.841900E+00   2.841900E+00   2.841900E+00   1.152800E+00   1.152800E+00   1.152800E+00   1.152800E+00   1.152800E+00   1.152800E+00   1.152800E+00   1.152800E+00   1.152800E+00   1.152800E+00   2.795700E-01   2.795700E-01   2.795700E-01   2.795700E-01   2.795700E-01   2.795700E-01   2.795700E-01   2.795700E-01   2.795700E-01   2.795700E-01   0.000000E+00   0.000000E+00   0.000000E+00   0.000000E+00   0.000000E+00   0.000000E+00   0.000000E+00   0.000000E+00   0.000000E+00   0.000000E+00   0.000000E+00   0.000000E+00   0.000000E+00   0.000000E+00   0.000000E+00   0.000000E+00   0.000000E+00   0.000000E+00   0.000000E+00   0.000000E+00
   7.901700E+00   7.901700E+00   7.901700E+00   7.901700E+00   7.901700E+00   7.901700E+00   7.901700E+00   7.901700E+00   7.901700E+00   7.901700E+00   8.260300E+00   8.260300E+00   8.260300E+00   8.260300E+00   8.260300E+00   8.260300E+00   8.260300E+00   8.260300E+00   8.260300E+00   8.260300E+00   7.856100E+00   7.856100E+00   7.856100E+00   7.856100E+00   7.856100E+00   7.856100E+00   7.856100E+00   7.856100E+00   7.856100E+00   7.856100E+00   7.414200E+00   7.414200E+00   7.414200E+00   7.414200E+00   7.414200E+00   7.414200E+00   7.414200E+00   7.414200E+00   7.414200E+00   7.414200E+00   7.124600E+00   7.124600E+00   7.124600E+00   7.124600E+00   7.124600E+00   7.124600E+00   7.124600E+00   7.124600E+00   7.124600E+00   7.124600E+00   5.242200E+00   5.242200E+00   5.242200E+00   5.242200E+00   5.242200E+00   5.242200E+00   5.242200E+00   5.242200E+00   5.242200E+00   5.242200E+00   2.841900E+00   2.841900E+00   2.841900E+00   2.841900E+00   2.841900E+00   2.841900E+00   2.841900E+00   2.841900E+00   2.841900E+00   2.841900E+00   1.152800E+00   1.152800E+00   1.152800E+00   1.152800E+00   1.152800E+00   1.152800E+00   1.152800E+00   1.152800E+00   1.152800E+00   1.152800E+00   2.795700E-01   2.795700E-01   2.795700E-01   2.795700E-01   2.795700E-01   2.795700E-01   2.795700E-01   2.795700E-01   2.795700E-01   2.795700E-01   0.000000E+00   0.000000E+00   0.000000E+00   0.000000E+00   0.000000E+00   0.000000E+00   0.000000E+00   0.000000E+00   0.000000E+00   0.000000E+00   0.000000E+00   0.000000E+00   0.000000E+00   0.000000E+00   0.000000E+00   0.000000E+00   0.000000E+00   0.000000E+00   0.000000E+00   0.000000E+00
   7.901700E+00   7.901700E+00   7.901700E+00   7.901700E+00   7.901700E+00   7.901700E+00   7.901700E+00   7.901700E+00   7.901700E+00   7.901700E+00   8.260300E+00   8.260300E+00   8.260300E+00   8.260300E+00   8.260300E+00   8.260300E+00   8.260300E+00   8.260300E+00   8.260300E+00   8.260300E+00   7.856100E+00   7.856100E+00   7.856100E+00   7.856100E+00   7.856100E+00   7.856100E+00   7.856100E+00   7.856100E+00   7.856100E+00   7.856100E+00   7.414200E+00   7.414200E+00   7.414200E+00   7.414200E+00   7.414200E+00   7.414200E+00   7.414200E+00   7.414200E+00   7.414200E+00   7.414200E+00   7.124600E+00   7.124600E+00   7.124600E+00   7.124600E+00   7.124600E+00   7.124600E+00   7.124600E+00   7.124600E+00   7.124600E+00   7.124600E+00   5.242200E+00   5.242200E+00   5.242200E+00   5.242200E+00   5.242200E+00   5.242200E+00   5.242200E+00   5.242200E+00   5.242200E+00   5.242200E+00   2.841900E+00   2.841900E+00   2.841900E+00   2.841900E+00   2.841900E+00   2.841900E+00   2.841900E+00   2.841900E+00   2.841900E+00   2.841900E+00   1.152800E+00   1.152800E+00   1.152800E+00   1.152800E+00   1.152800E+00   1.152800E+00   1.152800E+00   1.152800E+00   1.152800E+00   1.152800E+00   2.795700E-01   2.795700E-01   2.795700E-01   2.795700E-01   2.795700E-01   2.795700E-01   2.795700E-01   2.795700E-01   2.795700E-01   2.795700E-01   0.000000E+00   0.000000E+00   0.000000E+00   0.000000E+00   0.000000E+00   0.000000E+00   0.000000E+00   0.000000E+00   0.000000E+00   0.000000E+00   0.000000E+00   0.000000E+00   0.000000E+00   0.000000E+00   0.000000E+00   0.000000E+00   0.000000E+00   0.000000E+00   0.000000E+00   0.000000E+00
   7.901700E+00   7.901700E+00   7.901700E+00   7.901700E+00   7.901700E+00   7.901700E+00   7.901700E+00   7.901700E+00   7.901700E+00   7.901700E+00   8.260300E+00   8.260300E+00   8.260300E+00   8.260300E+00   8.260300E+00   8.260300E+00   8.260300E+00   8.260300E+00   8.260300E+00   8.260300E+00   7.856100E+00   7.856100E+00   7.856100E+00   7.856100E+00   7.856100E+00   7.856100E+00   7.856100E+00   7.856100E+00   7.856100E+00   7.856100E+00   7.414200E+00   7.414200E+00   7.414200E+00   7.414200E+00   7.414200E+00   7.414200E+00   7.414200E+00   7.414200E+00   7.414200E+00   7.414200E+00   7.124600E+00   7.124600E+00   7.124600E+00   7.124600E+00   7.124600E+00   7.124600E+00   7.124600E+00   7.124600E+00   7.124600E+00   7.124600E+00   5.242200E+00   5.242200E+00   5.242200E+00   5.242200E+00   5.242200E+00   5.242200E+00   5.242200E+00   5.242200E+00   5.242200E+00   5.242200E+00   2.841900E+00   2.841900E+00   2.841900E+00   2.841900E+00   2.841900E+00   2.841900E+00   2.841900E+00   2.841900E+00   2.841900E+00   2.841900E+00   1.152800E+00   1.152800E+00   1.152800E+00   1.152800E+00   1.152800E+00   1.152800E+00   1.152800E+00   1.152800E+00   1.152800E+00   1.152800E+00   2.795700E-01   2.795700E-01   2.795700E-01   2.795700E-01   2.795700E-01   2.795700E-01   2.795700E-01   2.795700E-01   2.795700E-01   2.795700E-01   0.000000E+00   0.000000E+00   0.000000E+00   0.000000E+00   0.000000E+00   0.000000E+00   0.000000E+00   0.000000E+00   0.000000E+00   0.000000E+00   0.000000E+00   0.000000E+00   0.000000E+00   0.000000E+00   0.000000E+00   0.000000E+00   0.000000E+00   0.000000E+00   0.000000E+00   0.000000E+00
   7.901700E+00   7.901700E+00   7.901700E+00   7.901700E+00   7.901700E+00   7.901700E+00   7.901700E+00   7.901700E+00   7.901700E+00   7.901700E+00   8.260300E+00   8.260300E+00   8.260300E+00   8.260300E+00   8.260300E+00   8.260300E+00   8.260300E+00   8.260300E+00   8.260300E+00   8.260300E+00   7.856100E+00   7.856100E+00   7.856100E+00   7.856100E+00   7.856100E+00   7.856100E+00   7.856100E+00   7.856100E+00   7.856100E+00   7.856100E+00   7.414200E+00   7.414200E+00   7.414200E+00   7.414200E+00   7.414200E+00   7.414200E+00   7.414200E+00   7.414200E+00   7.414200E+00   7.414200E+00   7.124600E+00   7.124600E+00   7.124600E+00   7.124600E+00   7.124600E+00   7.124600E+00   7.124600E+00   7.124600E+00   7.124600E+00   7.124600E+00   5.242200E+00   5.242200E+00   5.242200E+00   5.242200E+00   5.242200E+00   5.242200E+00   5.242200E+00   5.242200E+00   5.242200E+00   5.242200E+00   2.841900E+00   2.841900E+00   2.841900E+00   2.841900E+00   2.841900E+00   2.841900E+00   2.841900E+00   2.841900E+00   2.841900E+00   2.841900E+00   1.152800E+00   1.152800E+00   1.152800E+00   1.152800E+00   1.152800E+00   1.152800E+00   1.152800E+00   1.152800E+00   1.152800E+00   1.152800E+00   2.795700E-01   2.795700E-01   2.795700E-01   2.795700E-01   2.795700E-01   2.795700E-01   2.795700E-01   2.795700E-01   2.795700E-01   2.795700E-01   0.000000E+00   0.000000E+00   0.000000E+00   0.000000E+00   0.000000E+00   0.000000E+00   0.000000E+00   0.000000E+00   0.000000E+00   0.000000E+00   0.000000E+00   0.000000E+00   0.000000E+00   0.000000E+00   0.000000E+00   0.000000E+00   0.000000E+00   0.000000E+00   0.000000E+00   0.000000E+00
   7.901700E+00   7.901700E+00   7.901700E+00   7.901700E+00   7.901700E+00   7.901700E+00   7.901700E+00   7.901700E+00   7.901700E+00   7.901700E+00   8.260300E+00   8.260300E+00   8.260300E+00   8.260300E+00   8.260300E+00   8.260300E+00   8.260300E+00   8.260300E+00   8.260300E+00   8.260300E+00   7.856100E+00   7.856100E+00   7.856100E+00   7.856100E+00   7.856100E+00   7.856100E+00   7.856100E+00   7.856100E+00   7.856100E+00   7.856100E+00   7.414200E+00   7.414200E+00   7.414200E+00   7.414200E+00   7.414200E+00   7.414200E+00   7.414200E+00   7.414200E+00   7.414200E+00   7.414200E+00   7.124600E+00   7.124600E+00   7.124600E+00   7.124600E+00   7.124600E+00   7.124600E+00   7.124600E+00   7.124600E+00   7.124600E+00   7.124600E+00   5.242200E+00   5.242200E+00   5.242200E+00   5.242200E+00   5.242200E+00   5.242200E+00   5.242200E+00   5.242200E+00   5.242200E+00   5.242200E+00   2.841900E+00   2.841900E+00   2.841900E+00   2.841900E+00   2.841900E+00   2.841900E+00   2.841900E+00   2.841900E+00   2.841900E+00   2.841900E+00   1.152800E+00   1.152800E+00   1.152800E+00   1.152800E+00   1.152800E+00   1.152800E+00   1.152800E+00   1.152800E+00   1.152800E+00   1.152800E+00   2.795700E-01   2.795700E-01   2.795700E-01   2.795700E-01   2.795700E-01   2.795700E-01   2.795700E-01   2.795700E-01   2.795700E-01   2.795700E-01   0.000000E+00   0.000000E+00   0.000000E+00   0.000000E+00   0.000000E+00   0.000000E+00   0.000000E+00   0.000000E+00   0.000000E+00   0.000000E+00   0.000000E+00   0.000000E+00   0.000000E+00   0.000000E+00   0.000000E+00   0.000000E+00   0.000000E+00   0.000000E+00   0.000000E+00   0.000000E+00
   7.901700E+00   7.901700E+00   7.901700E+00   7.901700E+00   7.901700E+00   7.901700E+00   7.901700E+00   7.901700E+00   7.901700E+00   7.901700E+00   8.260300E+00   8.260300E+00   8.260300E+00   8.260300E+00   8.260300E+00   8.260300E+00   8.260300E+00   8.260300E+00   8.260300E+00   8.260300E+00   7.856100E+00   7.856100E+00   7.856100E+00   7.856100E+00   7.856100E+00   7.856100E+00   7.856100E+00   7.856100E+00   7.856100E+00   7.856100E+00   7.414200E+00   7.414200E+00   7.414200E+00   7.414200E+00   7.414200E+00   7.414200E+00   7.414200E+00   7.414200E+00   7.414200E+00   7.414200E+00   7.124600E+00   7.124600E+00   7.124600E+00   7.124600E+00   7.124600E+00   7.124600E+00   7.124600E+00   7.124600E+00   7.124600E+00   7.124600E+00   5.242200E+00   5.242200E+00   5.242200E+00   5.242200E+00   5.242200E+00   5.242200E+00   5.242200E+00   5.242200E+00   5.242200E+00   5.242200E+00   2.841900E+00   2.841900E+00   2.841900E+00   2.841900E+00   2.841900E+00   2.841900E+00   2.841900E+00   2.841900E+00   2.841900E+00   2.841900E+00   1.152800E+00   1.152800E+00   1.152800E+00   1.152800E+00   1.152800E+00   1.152800E+00   1.152800E+00   1.152800E+00   1.152800E+00   1.152800E+00   2.795700E-01   2.795700E-01   2.795700E-01   2.795700E-01   2.795700E-01   2.795700E-01   2.795700E-01   2.795700E-01   2.795700E-01   2.795700E-01   0.000000E+00   0.000000E+00   0.000000E+00   0.000000E+00   0.000000E+00   0.000000E+00   0.000000E+00   0.000000E+00   0.000000E+00   0.000000E+00   0.000000E+00   0.000000E+00   0.000000E+00   0.000000E+00   0.000000E+00   0.000000E+00   0.000000E+00   0.000000E+00   0.000000E+00   0.000000E+00
   7.748100E+00   7.748100E+00   7.748100E+00   7.748100E+00   7.748100E+00   7.748100E+00   7.748100E+00   7.748100E+00   7.748100E+00   7.748100E+00   7.425300E+00   7.425300E+00   7.425300E+00   7.425300E+00   7.425300E+00   7.425300E+00   7.425300E+00   7.425300E+00   7.425300E+00   7.425300E+00   7.172400E+00   7.172400E+00   7.172400E+00   7.172400E+00   7.172400E+00   7.172400E+00   7.172400E+00   7.172400E+00   7.172400E+00   7.172400E+00   7.224400E+00   7.224400E+00   7.224400E+00   7.224400E+00   7.224400E+00   7.224400E+00   7.224400E+00   7.224400E+00   7.224400E+00   7.224400E+00   7.046900E+00   7.046900E+00   7.046900E+00   7.046900E+00   7.046900E+00   7.046900E+00   7.046900E+00   7.046900E+00   7.046900E+00   7.046900E+00   5.947000E+00   5.947000E+00   5.947000E+00   5.947000E+00   5.947000E+00   5.947000E+00   5.947000E+00   5.947000E+00   5.947000E+00   5.947000E+00   3.303300E+00   3.303300E+00   3.303300E+00   3.303300E+00   3.303300E+00   3.303300E+00   3.303300E+00   3.303300E+00   3.303300E+00   3.303300E+00   5.413400E-01   5.413400E-01   5.413400E-01   5.413400E-01   5.413400E-01   5.413400E-01   5.413400E-01   5.413400E-01   5.413400E-01   5.413400E-01   0.000000E+00   0.000000E+00   0.000000E+00   0.000000E+00   0.000000E+00   0.000000E+00   0.000000E+00   0.000000E+00   0.000000E+00   0.000000E+00   0.000000E+00   0.000000E+00   0.000000E+00   0.000000E+00   0.000000E+00   0.000000E+00   0.000000E+00   0.000000E+00   0.000000E+00   0.000000E+00   0.000000E+00   0.000000E+00   0.000000E+00   0.000000E+00   0.000000E+00   0.000000E+00   0.000000E+00   0.000000E+00   0.000000E+00   0.000000E+00
   7.748100E+00   7.748100E+00   7.748100E+00   7.748100E+00   7.748100E+00   7.748100E+00   7.748100E+00   7.748100E+00   7.748100E+00   7.748100E+00   7.425300E+00   7.425300E+00   7.425300E+00   7.425300E+00   7.425300E+00   7.425300E+00   7.425300E+00   7.425300E+00   7.425300E+00   7.425300E+00   7.172400E+00   7.172400E+00   7.172400E+00   7.172400E+00   7.172400E+00   7.172400E+00   7.172400E+00   7.172400E+00   7.172400E+00   7.172400E+00   7.224400E+00   7.224400E+00   7.224400E+00   7.224400E+00   7.224400E+00   7.224400E+00   7.224400E+00   7.224400E+00   7.224400E+00   7.224400E+00   7.046900E+00   7.046900E+00   7.046900E+00   7.046900E+00   7.046900E+00   7.046900E+00   7.046900E+00   7.046900E+00   7.046900E+00   7.046900E+00   5.947000E+00   5.947000E+00   5.947000E+00   5.947000E+00   5.947000E+00   5.947000E+00   5.947000E+00   5.947000E+00   5.947000E+00   5.947000E+00   3.303300E+00   3.303300E+00   3.303300E+00   3.303300E+00   3.303300E+00   3.303300E+00   3.303300E+00   3.303300E+00   3.303300E+00   3.303300E+00   5.413400E-01   5.413400E-01   5.413400E-01   5.413400E-01   5.413400E-01   5.413400E-01   5.413400E-01   5.413400E-01   5.413400E-01   5.413400E-01   0.000000E+00   0.000000E+00   0.000000E+00   0.000000E+00   0.000000E+00   0.000000E+00   0.000000E+00   0.000000E+00   0.000000E+00   0.000000E+00   0.000000E+00   0.000000E+00   0.000000E+00   0.000000E+00   0.000000E+00   0.000000E+00   0.000000E+00   0.000000E+00   0.000000E+00   0.000000E+00   0.000000E+00   0.000000E+00   0.000000E+00   0.000000E+00   0.000000E+00   0.000000E+00   0.000000E+00   0.000000E+00   0.000000E+00   0.000000E+00
   7.748100E+00   7.748100E+00   7.748100E+00   7.748100E+00   7.748100E+00   7.748100E+00   7.748100E+00   7.748100E+00   7.748100E+00   7.748100E+00   7.425300E+00   7.425300E+00   7.425300E+00   7.425300E+00   7.425300E+00   7.425300E+00   7.425300E+00   7.425300E+00   7.425300E+00   7.425300E+00   7.172400E+00   7.172400E+00   7.172400E+00   7.172400E+00   7.172400E+00   7.172400E+00   7.172400E+00   7.172400E+00   7.172400E+00   7.172400E+00   7.224400E+00   7.224400E+00   7.224400E+00   7.224400E+00   7.224400E+00   7.224400E+00   7.224400E+00   7.224400E+00   7.224400E+00   7.224400E+00   7.046900E+00   7.046900E+00   7.046900E+00   7.046900E+00   7.046900E+00   7.046900E+00   7.046900E+00   7.046900E+00   7.046900E+00   7.046900E+00   5.947000E+00   5.947000E+00   5.947000E+00   5.947000E+00   5.947000E+00   5.947000E+00   5.947000E+00   5.947000E+00   5.947000E+00   5.947000E+00   3.303300E+00   3.303300E+00   3.303300E+00   3.303300E+00   3.303300E+00   3.303300E+00   3.303300E+00   3.303300E+00   3.303300E+00   3.303300E+00   5.413400E-01   5.413400E-01   5.413400E-01   5.413400E-01   5.413400E-01   5.413400E-01   5.413400E-01   5.413400E-01   5.413400E-01   5.413400E-01   0.000000E+00   0.000000E+00   0.000000E+00   0.000000E+00   0.000000E+00   0.000000E+00   0.000000E+00   0.000000E+00   0.000000E+00   0.000000E+00   0.000000E+00   0.000000E+00   0.000000E+00   0.000000E+00   0.000000E+00   0.000000E+00   0.000000E+00   0.000000E+00   0.000000E+00   0.000000E+00   0.000000E+00   0.000000E+00   0.000000E+00   0.000000E+00   0.000000E+00   0.000000E+00   0.000000E+00   0.000000E+00   0.000000E+00   0.000000E+00
   7.748100E+00   7.748100E+00   7.748100E+00   7.748100E+00   7.748100E+00   7.748100E+00   7.748100E+00   7.748100E+00   7.748100E+00   7.748100E+00   7.425300E+00   7.425300E+00   7.425300E+00   7.425300E+00   7.425300E+00   7.425300E+00   7.425300E+00   7.425300E+00   7.425300E+00   7.425300E+00   7.172400E+00   7.172400E+00   7.172400E+00   7.172400E+00   7.172400E+00   7.172400E+00   7.172400E+00   7.172400E+00   7.172400E+00   7.172400E+00   7.224400E+00   7.224400E+00   7.224400E+00   7.224400E+00   7.224400E+00   7.224400E+00   7.224400E+00   7.224400E+00   7.224400E+00   7.224400E+00   7.046900E+00   7.046900E+00   7.046900E+00   7.046900E+00   7.046900E+00   7.046900E+00   7.046900E+00   7.046900E+00   7.046900E+00   7.046900E+00   5.947000E+00   5.947000E+00   5.947000E+00   5.947000E+00   5.947000E+00   5.947000E+00   5.947000E+00   5.947000E+00   5.947000E+00   5.947000E+00   3.303300E+00   3.303300E+00   3.303300E+00   3.303300E+00   3.303300E+00   3.303300E+00   3.303300E+00   3.303300E+00   3.303300E+00   3.303300E+00   5.413400E-01   5.413400E-01   5.413400E-01   5.413400E-01   5.413400E-01   5.413400E-01   5.413400E-01   5.413400E-01   5.413400E-01   5.413400E-01   0.000000E+00   0.000000E+00   0.000000E+00   0.000000E+00   0.000000E+00   0.000000E+00   0.000000E+00   0.000000E+00   0.000000E+00   0.000000E+00   0.000000E+00   0.000000E+00   0.000000E+00   0.000000E+00   0.000000E+00   0.000000E+00   0.000000E+00   0.000000E+00   0.000000E+00   0.000000E+00   0.000000E+00   0.000000E+00   0.000000E+00   0.000000E+00   0.000000E+00   0.000000E+00   0.000000E+00   0.000000E+00   0.000000E+00   0.000000E+00
   7.748100E+00   7.748100E+00   7.748100E+00   7.748100E+00   7.748100E+00   7.748100E+00   7.748100E+00   7.748100E+00   7.748100E+00   7.748100E+00   7.425300E+00   7.425300E+00   7.425300E+00   7.425300E+00   7.425300E+00   7.425300E+00   7.425300E+00   7.425300E+00   7.425300E+00   7.425300E+00   7.172400E+00   7.172400E+00   7.172400E+00   7.172400E+00   7.172400E+00   7.172400E+00   7.172400E+00   7.172400E+00   7.172400E+00   7.172400E+00   7.224400E+00   7.224400E+00   7.224400E+00   7.224400E+00   7.224400E+00   7.224400E+00   7.224400E+00   7.224400E+00   7.224400E+00   7.224400E+00   7.046900E+00   7.046900E+00   7.046900E+00   7.046900E+00   7.046900E+00   7.046900E+00   7.046900E+00   7.046900E+00   7.046900E+00   7.046900E+00   5.947000E+00   5.947000E+00   5.947000E+00   5.947000E+00   5.947000E+00   5.947000E+00   5.947000E+00   5.947000E+00   5.947000E+00   5.947000E+00   3.303300E+00   3.303300E+00   3.303300E+00   3.303300E+00   3.303300E+00   3.303300E+00   3.303300E+00   3.303300E+00   3.303300E+00   3.303300E+00   5.413400E-01   5.413400E-01   5.413400E-01   5.413400E-01   5.413400E-01   5.413400E-01   5.413400E-01   5.413400E-01   5.413400E-01   5.413400E-01   0.000000E+00   0.000000E+00   0.000000E+00   0.000000E+00   0.000000E+00   0.000000E+00   0.000000E+00   0.000000E+00   0.000000E+00   0.000000E+00   0.000000E+00   0.000000E+00   0.000000E+00   0.000000E+00   0.000000E+00   0.000000E+00   0.000000E+00   0.000000E+00   0.000000E+00   0.000000E+00   0.000000E+00   0.000000E+00   0.000000E+00   0.000000E+00   0.000000E+00   0.000000E+00   0.000000E+00   0.000000E+00   0.000000E+00   0.000000E+00
   7.748100E+00   7.748100E+00   7.748100E+00   7.748100E+00   7.748100E+00   7.748100E+00   7.748100E+00   7.748100E+00   7.748100E+00   7.748100E+00   7.425300E+00   7.425300E+00   7.425300E+00   7.425300E+00   7.425300E+00   7.425300E+00   7.425300E+00   7.425300E+00   7.425300E+00   7.425300E+00   7.172400E+00   7.172400E+00   7.172400E+00   7.172400E+00   7.172400E+00   7.172400E+00   7.172400E+00   7.172400E+00   7.172400E+00   7.172400E+00   7.224400E+00   7.224400E+00   7.224400E+00   7.224400E+00   7.224400E+00   7.224400E+00   7.224400E+00   7.224400E+00   7.224400E+00   7.224400E+00   7.046900E+00   7.046900E+00   7.046900E+00   7.046900E+00   7.046900E+00   7.046900E+00   7.046900E+00   7.046900E+00   7.046900E+00   7.046900E+00   5.947000E+00   5.947000E+00   5.947000E+00   5.947000E+00   5.947000E+00   5.947000E+00   5.947000E+00   5.947000E+00   5.947000E+00   5.947000E+00   3.303300E+00   3.303300E+00   3.303300E+00   3.303300E+00   3.303300E+00   3.303300E+00   3.303300E+00   3.303300E+00   3.303300E+00   3.303300E+00   5.413400E-01   5.413400E-01   5.413400E-01   5.413400E-01   5.413400E-01   5.413400E-01   5.413400E-01   5.413400E-01   5.413400E-01   5.413400E-01   0.000000E+00   0.000000E+00   0.000000E+00   0.000000E+00   0.000000E+00   0.000000E+00   0.000000E+00   0.000000E+00   0.000000E+00   0.000000E+00   0.000000E+00   0.000000E+00   0.000000E+00   0.000000E+00   0.000000E+00   0.000000E+00   0.000000E+00   0.000000E+00   0.000000E+00   0.000000E+00   0.000000E+00   0.000000E+00   0.000000E+00   0.000000E+00   0.000000E+00   0.000000E+00   0.000000E+00   0.000000E+00   0.000000E+00   0.000000E+00
   7.748100E+00   7.748100E+00   7.748100E+00   7.748100E+00   7.748100E+00   7.748100E+00   7.748100E+00   7.748100E+00   7.748100E+00   7.748100E+00   7.425300E+00   7.425300E+00   7.425300E+00   7.425300E+00   7.425300E+00   7.425300E+00   7.425300E+00   7.425300E+00   7.425300E+00   7.425300E+00   7.172400E+00   7.172400E+00   7.172400E+00   7.172400E+00   7.172400E+00   7.172400E+00   7.172400E+00   7.172400E+00   7.172400E+00   7.172400E+00   7.224400E+00   7.224400E+00   7.224400E+00   7.224400E+00   7.224400E+00   7.224400E+00   7.224400E+00   7.224400E+00   7.224400E+00   7.224400E+00   7.046900E+00   7.046900E+00   7.046900E+00   7.046900E+00   7.046900E+00   7.046900E+00   7.046900E+00   7.046900E+00   7.046900E+00   7.046900E+00   5.947000E+00   5.947000E+00   5.947000E+00   5.947000E+00   5.947000E+00   5.947000E+00   5.947000E+00   5.947000E+00   5.947000E+00   5.947000E+00   3.303300E+00   3.303300E+00   3.303300E+00   3.303300E+00   3.303300E+00   3.303300E+00   3.303300E+00   3.303300E+00   3.303300E+00   3.303300E+00   5.413400E-01   5.413400E-01   5.413400E-01   5.413400E-01   5.413400E-01   5.413400E-01   5.413400E-01   5.413400E-01   5.413400E-01   5.413400E-01   0.000000E+00   0.000000E+00   0.000000E+00   0.000000E+00   0.000000E+00   0.000000E+00   0.000000E+00   0.000000E+00   0.000000E+00   0.000000E+00   0.000000E+00   0.000000E+00   0.000000E+00   0.000000E+00   0.000000E+00   0.000000E+00   0.000000E+00   0.000000E+00   0.000000E+00   0.000000E+00   0.000000E+00   0.000000E+00   0.000000E+00   0.000000E+00   0.000000E+00   0.000000E+00   0.000000E+00   0.000000E+00   0.000000E+00   0.000000E+00