# RCH package for  MODFLOW-2005, generated by Flopy.
         3         0
         1        -1 # Stress period 1
INTERNAL               1 (110E15.6) -1 #rech_1                        
   7.397300E-04   7.397300E-04   7.397300E-04   7.397300E-04   7.397300E-04   7.397300E-04   7.397300E-04   7.397300E-04   7.397300E-04   7.397300E-04   7.397300E-04   7.397300E-04   7.397300E-04   7.397300E-04   7.397300E-04   7.397300E-04   7.397300E-04   7.397300E-04   7.397300E-04   7.397300E-04   7.397300E-04   7.397300E-04   7.397300E-04   7.397300E-04   7.397300E-04   7.397300E-04   7.397300E-04   7.397300E-04   7.397300E-04   7.397300E-04   7.397300E-04   7.397300E-04   7.397300E-04   7.397300E-04   7.397300E-04   7.397300E-04   7.397300E-04   7.397300E-04   7.397300E-04   7.397300E-04   7.397300E-04   7.397300E-04   7.397300E-04   7.397300E-04   7.397300E-04   7.397300E-04   7.397300E-04   7.397300E-04   7.397300E-04   7.397300E-04   7.397300E-04   7.397300E-04   7.397300E-04   7.397300E-04   7.397300E-04   7.397300E-04   7.397300E-04   7.397300E-04   7.397300E-04   7.397300E-04   7.397300E-04   7.397300E-04   7.397300E-04   7.397300E-04   7.397300E-04   7.397300E-04   7.397300E-04   7.397300E-04   7.397300E-04   7.397300E-04   7.397300E-04   7.397300E-04   7.397300E-04   7.397300E-04   7.397300E-04   7.397300E-04   7.397300E-04   7.397300E-04   7.397300E-04   7.397300E-04   2.465800E-04   2.465800E-04   2.465800E-04   2.465800E-04   2.465800E-04   2.465800E-04   2.465800E-04   2.465800E-04   2.465800E-04   2.465800E-04   0.000000E+00   0.000000E+00   0.000000E+00   0.000000E+00   0.000000E+00   0.000000E+00   0.000000E+00   0.000000E+00   0.000000E+00   0.000000E+00   0.000000E+00   0.000000E+00   0.000000E+00   0.000000E+00   0.000000E+00   0.000000E+00   0.000000E+00   0.000000E+00   0.000000E+00   0.000000E+00
   7.397300E-04   7.397300E-04   7.397300E-04   7.397300E-04   7.397300E-04   7.397300E-04   7.397300E-04   7.397300E-04   7.397300E-04   7.397300E-04   7.397300E-04   7.397300E-04   7.397300E-04   7.397300E-04   7.397300E-04   7.397300E-04   7.397300E-04   7.397300E-04   7.397300E-04   7.397300E-04   7.397300E-04   7.397300E-04   7.397300E-04   7.397300E-04   7.397300E-04   7.397300E-04   7.397300E-04   7.397300E-04   7.397300E-04   7.397300E-04   7.397300E-04   7.397300E-04   7.397300E-04   7.397300E-04   7.397300E-04   7.397300E-04   7.397300E-04   7.397300E-04   7.397300E-04   7.397300E-04   7.397300E-04   7.397300E-04   7.397300E-04   7.397300E-04   7.397300E-04   7.397300E-04   7.397300E-04   7.397300E-04   7.397300E-04   7.397300E-04   7.397300E-04   7.397300E-04   7.397300E-04   7.397300E-04   7.397300E-04   7.397300E-04   7.397300E-04   7.397300E-04   7.397300E-04   7.397300E-04   7.397300E-04   7.397300E-04   7.397300E-04   7.397300E-04   7.397300E-04   7.397300E-04   7.397300E-04   7.397300E-04   7.397300E-04   7.397300E-04   7.397300E-04   7.397300E-04   7.397300E-04   7.397300E-04   7.397300E-04   7.397300E-04   7.397300E-04   7.397300E-04   7.397300E-04   7.397300E-04   2.465800E-04   2.465800E-04   2.465800E-04   2.465800E-04   2.465800E-04   2.465800E-04   2.465800E-04   2.465800E-04   2.465800E-04   2.465800E-04   0.000000E+00   0.000000E+00   0.000000E+00   0.000000E+00   0.000000E+00   0.000000E+00   0.000000E+00   0.000000E+00   0.000000E+00   0.000000E+00   0.000000E+00   0.000000E+00   0.000000E+00   0.000000E+00   0.000000E+00   0.000000E+00   0.000000E+00   0.000000E+00   0.000000E+00   0.000000E+00
   7.397300E-04   7.397300E-04   7.397300E-04   7.397300E-04   7.397300E-04   7.397300E-04   7.397300E-04   7.397300E-04   7.397300E-04   7.397300E-04   7.397300E-04   7.397300E-04   7.397300E-04   7.397300E-04   7.397300E-04   7.397300E-04   7.397300E-04   7.397300E-04   7.397300E-04   7.397300E-04   7.397300E-04   7.397300E-04   7.397300E-04   7.397300E-04   7.397300E-04   7.397300E-04   7.397300E-04   7.397300E-04   7.397300E-04   7.397300E-04   7.397300E-04   7.397300E-04   7.397300E-04   7.397300E-04   7.397300E-04   7.397300E-04   7.397300E-04   7.397300E-04   7.397300E-04   7.397300E-04   7.397300E-04   7.397300E-04   7.397300E-04   7.397300E-04   7.397300E-04   7.397300E-04   7.397300E-04   7.397300E-04   7.397300E-04   7.397300E-04   7.397300E-04   7.397300E-04   7.397300E-04   7.397300E-04   7.397300E-04   7.397300E-04   7.397300E-04   7.397300E-04   7.397300E-04   7.397300E-04   7.397300E-04   7.397300E-04   7.397300E-04   7.397300E-04   7.397300E-04   7.397300E-04   7.397300E-04   7.397300E-04   7.397300E-04   7.397300E-04   7.397300E-04   7.397300E-04   7.397300E-04   7.397300E-04   7.397300E-04   7.397300E-04   7.397300E-04   7.397300E-04   7.397300E-04   7.397300E-04   2.465800E-04   2.465800E-04   2.465800E-04   2.465800E-04   2.465800E-04   2.465800E-04   2.465800E-04   2.465800E-04   2.465800E-04   2.465800E-04   0.000000E+00   0.000000E+00   0.000000E+00   0.000000E+00   0.000000E+00   0.000000E+00   0.000000E+00   0.000000E+00   0.000000E+00   0.000000E+00   0.000000E+00   0.000000E+00   0.000000E+00   0.000000E+00   0.000000E+00   0.000000E+00   0.000000E+00   0.000000E+00   0.000000E+00   0.000000E+00
   7.397300E-04   7.397300E-04   7.397300E-04   7.397300E-04   7.397300E-04   7.397300E-04   7.397300E-04   7.397300E-04   7.397300E-04   7.397300E-04   7.397300E-04   7.397300E-04   7.397300E-04   7.397300E-04   7.397300E-04   7.397300E-04   7.397300E-04   7.397300E-04   7.397300E-04   7.397300E-04   7.397300E-04   7.397300E-04   7.397300E-04   7.397300E-04   7.397300E-04   7.397300E-04   7.397300E-04   7.397300E-04   7.397300E-04   7.397300E-04   7.397300E-04   7.397300E-04   7.397300E-04   7.397300E-04   7.397300E-04   7.397300E-04   7.397300E-04   7.397300E-04   7.397300E-04   7.397300E-04   7.397300E-04   7.397300E-04   7.397300E-04   7.397300E-04   7.397300E-04   7.397300E-04   7.397300E-04   7.397300E-04   7.397300E-04   7.397300E-04   7.397300E-04   7.397300E-04   7.397300E-04   7.397300E-04   7.397300E-04   7.397300E-04   7.397300E-04   7.397300E-04   7.397300E-04   7.397300E-04   7.397300E-04   7.397300E-04   7.397300E-04   7.397300E-04   7.397300E-04   7.397300E-04   7.397300E-04   7.397300E-04   7.397300E-04   7.397300E-04   7.397300E-04   7.397300E-04   7.397300E-04   7.397300E-04   7.397300E-04   7.397300E-04   7.397300E-04   7.397300E-04   7.397300E-04   7.397300E-04   2.465800E-04   2.465800E-04   2.465800E-04   2.465800E-04   2.465800E-04   2.465800E-04   2.465800E-04   2.465800E-04   2.465800E-04   2.465800E-04   0.000000E+00   0.000000E+00   0.000000E+00   0.000000E+00   0.000000E+00   0.000000E+00   0.000000E+00   0.000000E+00   0.000000E+00   0.000000E+00   0.000000E+00   0.000000E+00   0.000000E+00   0.000000E+00   0.000000E+00   0.000000E+00   0.000000E+00   0.000000E+00   0.000000E+00   0.000000E+00
   7.397300E-04   7.397300E-04   7.397300E-04   7.397300E-04   7.397300E-04   7.397300E-04   7.397300E-04   7.397300E-04   7.397300E-04   7.397300E-04   7.397300E-04   7.397300E-04   7.397300E-04   7.397300E-04   7.397300E-04   7.397300E-04   7.397300E-04   7.397300E-04   7.397300E-04   7.397300E-04   7.397300E-04   7.397300E-04   7.397300E-04   7.397300E-04   7.397300E-04   7.397300E-04   7.397300E-04   7.397300E-04   7.397300E-04   7.397300E-04   7.397300E-04   7.397300E-04   7.397300E-04   7.397300E-04   7.397300E-04   7.397300E-04   7.397300E-04   7.397300E-04   7.397300E-04   7.397300E-04   7.397300E-04   7.397300E-04   7.397300E-04   7.397300E-04   7.397300E-04   7.397300E-04   7.397300E-04   7.397300E-04   7.397300E-04   7.397300E-04   7.397300E-04   7.397300E-04   7.397300E-04   7.397300E-04   7.397300E-04   7.397300E-04   7.397300E-04   7.397300E-04   7.397300E-04   7.397300E-04   7.397300E-04   7.397300E-04   7.397300E-04   7.397300E-04   7.397300E-04   7.397300E-04   7.397300E-04   7.397300E-04   7.397300E-04   7.397300E-04   7.397300E-04   7.397300E-04   7.397300E-04   7.397300E-04   7.397300E-04   7.397300E-04   7.397300E-04   7.397300E-04   7.397300E-04   7.397300E-04   2.465800E-04   2.465800E-04   2.465800E-04   2.465800E-04   2.465800E-04   2.465800E-04   2.465800E-04   2.465800E-04   2.465800E-04   2.465800E-04   0.000000E+00   0.000000E+00   0.000000E+00   0.000000E+00   0.000000E+00   0.000000E+00   0.000000E+00   0.000000E+00   0.000000E+00   0.000000E+00   0.000000E+00   0.000000E+00   0.000000E+00   0.000000E+00   0.000000E+00   0.000000E+00   0.000000E+00   0.000000E+00   0.000000E+00   0.000000E+00
   7.397300E-04   7.397300E-04   7.397300E-04   7.397300E-04   7.397300E-04   7.397300E-04   7.397300E-04   7.397300E-04   7.397300E-04   7.397300E-04   7.397300E-04   7.397300E-04   7.397300E-04   7.397300E-04   7.397300E-04   7.397300E-04   7.397300E-04   7.397300E-04   7.397300E-04   7.397300E-04   7.397300E-04   7.397300E-04   7.397300E-04   7.397300E-04   7.397300E-04   7.397300E-04   7.397300E-04   7.397300E-04   7.397300E-04   7.397300E-04   7.397300E-04   7.397300E-04   7.397300E-04   7.397300E-04   7.397300E-04   7.397300E-04   7.397300E-04   7.397300E-04   7.397300E-04   7.397300E-04   7.397300E-04   7.397300E-04   7.397300E-04   7.397300E-04   7.397300E-04   7.397300E-04   7.397300E-04   7.397300E-04   7.397300E-04   7.397300E-04   7.397300E-04   7.397300E-04   7.397300E-04   7.397300E-04   7.397300E-04   7.397300E-04   7.397300E-04   7.397300E-04   7.397300E-04   7.397300E-04   7.397300E-04   7.397300E-04   7.397300E-04   7.397300E-04   7.397300E-04   7.397300E-04   7.397300E-04   7.397300E-04   7.397300E-04   7.397300E-04   7.397300E-04   7.397300E-04   7.397300E-04   7.397300E-04   7.397300E-04   7.397300E-04   7.397300E-04   7.397300E-04   7.397300E-04   7.397300E-04   2.465800E-04   2.465800E-04   2.465800E-04   2.465800E-04   2.465800E-04   2.465800E-04   2.465800E-04   2.465800E-04   2.465800E-04   2.465800E-04   0.000000E+00   0.000000E+00   0.000000E+00   0.000000E+00   0.000000E+00   0.000000E+00   0.000000E+00   0.000000E+00   0.000000E+00   0.000000E+00   0.000000E+00   0.000000E+00   0.000000E+00   0.000000E+00   0.000000E+00   0.000000E+00   0.000000E+00   0.000000E+00   0.000000E+00   0.000000E+00
   7.397300E-04   7.397300E-04   7.397300E-04   7.397300E-04   7.397300E-04   7.397300E-04   7.397300E-04   7.397300E-04   7.397300E-04   7.397300E-04   7.397300E-04   7.397300E-04   7.397300E-04   7.397300E-04   7.397300E-04   7.397300E-04   7.397300E-04   7.397300E-04   7.397300E-04   7.397300E-04   7.397300E-04   7.397300E-04   7.397300E-04   7.397300E-04   7.397300E-04   7.397300E-04   7.397300E-04   7.397300E-04   7.397300E-04   7.397300E-04   7.397300E-04   7.397300E-04   7.397300E-04   7.397300E-04   7.397300E-04   7.397300E-04   7.397300E-04   7.397300E-04   7.397300E-04   7.397300E-04   7.397300E-04   7.397300E-04   7.397300E-04   7.397300E-04   7.397300E-04   7.397300E-04   7.397300E-04   7.397300E-04   7.397300E-04   7.397300E-04   7.397300E-04   7.397300E-04   7.397300E-04   7.397300E-04   7.397300E-04   7.397300E-04   7.397300E-04   7.397300E-04   7.397300E-04   7.397300E-04   7.397300E-04   7.397300E-04   7.397300E-04   7.397300E-04   7.397300E-04   7.397300E-04   7.397300E-04   7.397300E-04   7.397300E-04   7.397300E-04   7.397300E-04   7.397300E-04   7.397300E-04   7.397300E-04   7.397300E-04   7.397300E-04   7.397300E-04   7.397300E-04   7.397300E-04   7.397300E-04   2.465800E-04   2.465800E-04   2.465800E-04   2.465800E-04   2.465800E-04   2.465800E-04   2.465800E-04   2.465800E-04   2.465800E-04   2.465800E-04   0.000000E+00   0.000000E+00   0.000000E+00   0.000000E+00   0.000000E+00   0.000000E+00   0.000000E+00   0.000000E+00   0.000000E+00   0.000000E+00   0.000000E+00   0.000000E+00   0.000000E+00   0.000000E+00   0.000000E+00   0.000000E+00   0.000000E+00   0.000000E+00   0.000000E+00   0.000000E+00
   7.397300E-04   7.397300E-04   7.397300E-04   7.397300E-04   7.397300E-04   7.397300E-04   7.397300E-04   7.397300E-04   7.397300E-04   7.397300E-04   7.397300E-04   7.397300E-04   7.397300E-04   7.397300E-04   7.397300E-04   7.397300E-04   7.397300E-04   7.397300E-04   7.397300E-04   7.397300E-04   7.397300E-04   7.397300E-04   7.397300E-04   7.397300E-04   7.397300E-04   7.397300E-04   7.397300E-04   7.397300E-04   7.397300E-04   7.397300E-04   7.397300E-04   7.397300E-04   7.397300E-04   7.397300E-04   7.397300E-04   7.397300E-04   7.397300E-04   7.397300E-04   7.397300E-04   7.397300E-04   7.397300E-04   7.397300E-04   7.397300E-04   7.397300E-04   7.397300E-04   7.397300E-04   7.397300E-04   7.397300E-04   7.397300E-04   7.397300E-04   7.397300E-04   7.397300E-04   7.397300E-04   7.397300E-04   7.397300E-04   7.397300E-04   7.397300E-04   7.397300E-04   7.397300E-04   7.397300E-04   7.397300E-04   7.397300E-04   7.397300E-04   7.397300E-04   7.397300E-04   7.397300E-04   7.397300E-04   7.397300E-04   7.397300E-04   7.397300E-04   7.397300E-04   7.397300E-04   7.397300E-04   7.397300E-04   7.397300E-04   7.397300E-04   7.397300E-04   7.397300E-04   7.397300E-04   7.397300E-04   2.465800E-04   2.465800E-04   2.465800E-04   2.465800E-04   2.465800E-04   2.465800E-04   2.465800E-04   2.465800E-04   2.465800E-04   2.465800E-04   0.000000E+00   0.000000E+00   0.000000E+00   0.000000E+00   0.000000E+00   0.000000E+00   0.000000E+00   0.000000E+00   0.000000E+00   0.000000E+00   0.000000E+00   0.000000E+00   0.000000E+00   0.000000E+00   0.000000E+00   0.000000E+00   0.000000E+00   0.000000E+00   0.000000E+00   0.000000E+00
   7.397300E-04   7.397300E-04   7.397300E-04   7.397300E-04   7.397300E-04   7.397300E-04   7.397300E-04   7.397300E-04   7.397300E-04   7.397300E-04   7.397300E-04   7.397300E-04   7.397300E-04   7.397300E-04   7.397300E-04   7.397300E-04   7.397300E-04   7.397300E-04   7.397300E-04   7.397300E-04   7.397300E-04   7.397300E-04   7.397300E-04   7.397300E-04   7.397300E-04   7.397300E-04   7.397300E-04   7.397300E-04   7.397300E-04   7.397300E-04   7.397300E-04   7.397300E-04   7.397300E-04   7.397300E-04   7.397300E-04   7.397300E-04   7.397300E-04   7.397300E-04   7.397300E-04   7.397300E-04   7.397300E-04   7.397300E-04   7.397300E-04   7.397300E-04   7.397300E-04   7.397300E-04   7.397300E-04   7.397300E-04   7.397300E-04   7.397300E-04   7.397300E-04   7.397300E-04   7.397300E-04   7.397300E-04   7.397300E-04   7.397300E-04   7.397300E-04   7.397300E-04   7.397300E-04   7.397300E-04   7.397300E-04   7.397300E-04   7.397300E-04   7.397300E-04   7.397300E-04   7.397300E-04   7.397300E-04   7.397300E-04   7.397300E-04   7.397300E-04   7.397300E-04   7.397300E-04   7.397300E-04   7.397300E-04   7.397300E-04   7.397300E-04   7.397300E-04   7.397300E-04   7.397300E-04   7.397300E-04   2.465800E-04   2.465800E-04   2.465800E-04   2.465800E-04   2.465800E-04   2.465800E-04   2.465800E-04   2.465800E-04   2.465800E-04   2.465800E-04   0.000000E+00   0.000000E+00   0.000000E+00   0.000000E+00   0.000000E+00   0.000000E+00   0.000000E+00   0.000000E+00   0.000000E+00   0.000000E+00   0.000000E+00   0.000000E+00   0.000000E+00   0.000000E+00   0.000000E+00   0.000000E+00   0.000000E+00   0.000000E+00   0.000000E+00   0.000000E+00
   7.397300E-04   7.397300E-04   7.397300E-04   7.397300E-04   7.397300E-04   7.397300E-04   7.397300E-04   7.397300E-04   7.397300E-04   7.397300E-04   7.397300E-04   7.397300E-04   7.397300E-04   7.397300E-04   7.397300E-04   7.397300E-04   7.397300E-04   7.397300E-04   7.397300E-04   7.397300E-04   7.397300E-04   7.397300E-04   7.397300E-04   7.397300E-04   7.397300E-04   7.397300E-04   7.397300E-04   7.397300E-04   7.397300E-04   7.397300E-04   7.397300E-04   7.397300E-04   7.397300E-04   7.397300E-04   7.397300E-04   7.397300E-04   7.397300E-04   7.397300E-04   7.397300E-04   7.397300E-04   7.397300E-04   7.397300E-04   7.397300E-04   7.397300E-04   7.397300E-04   7.397300E-04   7.397300E-04   7.397300E-04   7.397300E-04   7.397300E-04   7.397300E-04   7.397300E-04   7.397300E-04   7.397300E-04   7.397300E-04   7.397300E-04   7.397300E-04   7.397300E-04   7.397300E-04   7.397300E-04   7.397300E-04   7.397300E-04   7.397300E-04   7.397300E-04   7.397300E-04   7.397300E-04   7.397300E-04   7.397300E-04   7.397300E-04   7.397300E-04   7.397300E-04   7.397300E-04   7.397300E-04   7.397300E-04   7.397300E-04   7.397300E-04   7.397300E-04   7.397300E-04   7.397300E-04   7.397300E-04   2.465800E-04   2.465800E-04   2.465800E-04   2.465800E-04   2.465800E-04   2.465800E-04   2.465800E-04   2.465800E-04   2.465800E-04   2.465800E-04   0.000000E+00   0.000000E+00   0.000000E+00   0.000000E+00   0.000000E+00   0.000000E+00   0.000000E+00   0.000000E+00   0.000000E+00   0.000000E+00   0.000000E+00   0.000000E+00   0.000000E+00   0.000000E+00   0.000000E+00   0.000000E+00   0.000000E+00   0.000000E+00   0.000000E+00   0.000000E+00
   7.397300E-04   7.397300E-04   7.397300E-04   7.397300E-04   7.397300E-04   7.397300E-04   7.397300E-04   7.397300E-04   7.397300E-04   7.397300E-04   7.397300E-04   7.397300E-04   7.397300E-04   7.397300E-04   7.397300E-04   7.397300E-04   7.397300E-04   7.397300E-04   7.397300E-04   7.397300E-04   7.397300E-04   7.397300E-04   7.397300E-04   7.397300E-04   7.397300E-04   7.397300E-04   7.397300E-04   7.397300E-04   7.397300E-04   7.397300E-04   7.397300E-04   7.397300E-04   7.397300E-04   7.397300E-04   7.397300E-04   7.397300E-04   7.397300E-04   7.397300E-04   7.397300E-04   7.397300E-04   7.397300E-04   7.397300E-04   7.397300E-04   7.397300E-04   7.397300E-04   7.397300E-04   7.397300E-04   7.397300E-04   7.397300E-04   7.397300E-04   7.397300E-04   7.397300E-04   7.397300E-04   7.397300E-04   7.397300E-04   7.397300E-04   7.397300E-04   7.397300E-04   7.397300E-04   7.397300E-04   7.397300E-04   7.397300E-04   7.397300E-04   7.397300E-04   7.397300E-04   7.397300E-04   7.397300E-04   7.397300E-04   7.397300E-04   7.397300E-04   6.575300E-04   6.575300E-04   6.575300E-04   6.575300E-04   6.575300E-04   6.575300E-04   6.575300E-04   6.575300E-04   6.575300E-04   6.575300E-04   0.000000E+00   0.000000E+00   0.000000E+00   0.000000E+00   0.000000E+00   0.000000E+00   0.000000E+00   0.000000E+00   0.000000E+00   0.000000E+00   0.000000E+00   0.000000E+00   0.000000E+00   0.000000E+00   0.000000E+00   0.000000E+00   0.000000E+00   0.000000E+00   0.000000E+00   0.000000E+00   0.000000E+00   0.000000E+00   0.000000E+00   0.000000E+00   0.000000E+00   0.000000E+00   0.000000E+00   0.000000E+00   0.000000E+00   0.000000E+00
   7.397300E-04   7.397300E-04   7.397300E-04   7.397300E-04   7.397300E-04   7.397300E-04   7.397300E-04   7.397300E-04   7.397300E-04   7.397300E-04   7.397300E-04   7.397300E-04   7.397300E-04   7.397300E-04   7.397300E-04   7.397300E-04   7.397300E-04   7.397300E-04   7.397300E-04   7.397300E-04   7.397300E-04   7.397300E-04   7.397300E-04   7.397300E-04   7.397300E-04   7.397300E-04   7.397300E-04   7.397300E-04   7.397300E-04   7.397300E-04   7.397300E-04   7.397300E-04   7.397300E-04   7.397300E-04   7.397300E-04   7.397300E-04   7.397300E-04   7.397300E-04   7.397300E-04   7.397300E-04   7.397300E-04   7.397300E-04   7.397300E-04   7.397300E-04   7.397300E-04   7.397300E-04   7.397300E-04   7.397300E-04   7.397300E-04   7.397300E-04   7.397300E-04   7.397300E-04   7.397300E-04   7.397300E-04   7.397300E-04   7.397300E-04   7.397300E-04   7.397300E-04   7.397300E-04   7.397300E-04   7.397300E-04   7.397300E-04   7.397300E-04   7.397300E-04   7.397300E-04   7.397300E-04   7.397300E-04   7.397300E-04   7.397300E-04   7.397300E-04   6.575300E-04   6.575300E-04   6.575300E-04   6.575300E-04   6.575300E-04   6.575300E-04   6.575300E-04   6.575300E-04   6.575300E-04   6.575300E-04   0.000000E+00   0.000000E+00   0.000000E+00   0.000000E+00   0.000000E+00   0.000000E+00   0.000000E+00   0.000000E+00   0.000000E+00   0.000000E+00   0.000000E+00   0.000000E+00   0.000000E+00   0.000000E+00   0.000000E+00   0.000000E+00   0.000000E+00   0.000000E+00   0.000000E+00   0.000000E+00   0.000000E+00   0.000000E+00   0.000000E+00   0.000000E+00   0.000000E+00   0.000000E+00   0.000000E+00   0.000000E+00   0.000000E+00   0.000000E+00
   7.397300E-04   7.397300E-04   7.397300E-04   7.397300E-04   7.397300E-04   7.397300E-04   7.397300E-04   7.397300E-04   7.397300E-04   7.397300E-04   7.397300E-04   7.397300E-04   7.397300E-04   7.397300E-04   7.397300E-04   7.397300E-04   7.397300E-04   7.397300E-04   7.397300E-04   7.397300E-04   7.397300E-04   7.397300E-04   7.397300E-04   7.397300E-04   7.397300E-04   7.397300E-04   7.397300E-04   7.397300E-04   7.397300E-04   7.397300E-04   7.397300E-04   7.397300E-04   7.397300E-04   7.397300E-04   7.397300E-04   7.397300E-04   7.397300E-04   7.397300E-04   7.397300E-04   7.397300E-04   7.397300E-04   7.397300E-04   7.397300E-04   7.397300E-04   7.397300E-04   7.397300E-04   7.397300E-04   7.397300E-04   7.397300E-04   7.397300E-04   7.397300E-04   7.397300E-04   7.397300E-04   7.397300E-04   7.397300E-04   7.397300E-04   7.397300E-04   7.397300E-04   7.397300E-04   7.397300E-04   7.397300E-04   7.397300E-04   7.397300E-04   7.397300E-04   7.397300E-04   7.397300E-04   7.397300E-04   7.397300E-04   7.397300E-04   7.397300E-04   6.575300E-04   6.575300E-04   6.575300E-04   6.575300E-04   6.575300E-04   6.575300E-04   6.575300E-04   6.575300E-04   6.575300E-04   6.575300E-04   0.000000E+00   0.000000E+00   0.000000E+00   0.000000E+00   0.000000E+00   0.000000E+00   0.000000E+00   0.000000E+00   0.000000E+00   0.000000E+00   0.000000E+00   0.000000E+00   0.000000E+00   0.000000E+00   0.000000E+00   0.000000E+00   0.000000E+00   0.000000E+00   0.000000E+00   0.000000E+00   0.000000E+00   0.000000E+00   0.000000E+00   0.000000E+00   0.000000E+00   0.000000E+00   0.000000E+00   0.000000E+00   0.000000E+00   0.000000E+00
   7.397300E-04   7.397300E-04   7.397300E-04   7.397300E-04   7.397300E-04   7.397300E-04   7.397300E-04   7.397300E-04   7.397300E-04   7.397300E-04   7.397300E-04   7.397300E-04   7.397300E-04   7.397300E-04   7.397300E-04   7.397300E-04   7.397300E-04   7.397300E-04   7.397300E-04   7.397300E-04   7.397300E-04   7.397300E-04   7.397300E-04   7.397300E-04   7.397300E-04   7.397300E-04   7.397300E-04   7.397300E-04   7.397300E-04   7.397300E-04   7.397300E-04   7.397300E-04   7.397300E-04   7.397300E-04   7.397300E-04   7.397300E-04   7.397300E-04   7.397300E-04   7.397300E-04   7.397300E-04   7.397300E-04   7.397300E-04   7.397300E-04   7.397300E-04   7.397300E-04   7.397300E-04   7.397300E-04   7.397300E-04   7.397300E-04   7.397300E-04   7.397300E-04   7.397300E-04   7.397300E-04   7.397300E-04   7.397300E-04   7.397300E-04   7.397300E-04   7.397300E-04   7.397300E-04   7.397300E-04   7.397300E-04   7.397300E-04   7.397300E-04   7.397300E-04   7.397300E-04   7.397300E-04   7.397300E-04   7.397300E-04   7.397300E-04   7.397300E-04   6.575300E-04   6.575300E-04   6.575300E-04   6.575300E-04   6.575300E-04   6.575300E-04   6.575300E-04   6.575300E-04   6.575300E-04   6.575300E-04   0.000000E+00   0.000000E+00   0.000000E+00   0.000000E+00   0.000000E+00   0.000000E+00   0.000000E+00   0.000000E+00   0.000000E+00   0.000000E+00   0.000000E+00   0.000000E+00   0.000000E+00   0.000000E+00   0.000000E+00   0.000000E+00   0.000000E+00   0.000000E+00   0.000000E+00   0.000000E+00   0.000000E+00   0.000000E+00   0.000000E+00   0.000000E+00   0.000000E+00   0.000000E+00   0.000000E+00   0.000000E+00   0.000000E+00   0.000000E+00
   7.397300E-04   7.397300E-04   7.397300E-04   7.397300E-04   7.397300E-04   7.397300E-04   7.397300E-04   7.397300E-04   7.397300E-04   7.397300E-04   7.397300E-04   7.397300E-04   7.397300E-04   7.397300E-04   7.397300E-04   7.397300E-04   7.397300E-04   7.397300E-04   7.397300E-04   7.397300E-04   7.397300E-04   7.397300E-04   7.397300E-04   7.397300E-04   7.397300E-04   7.397300E-04   7.397300E-04   7.397300E-04   7.397300E-04   7.397300E-04   7.397300E-04   7.397300E-04   7.397300E-04   7.397300E-04   7.397300E-04   7.397300E-04   7.397300E-04   7.397300E-04   7.397300E-04   7.397300E-04   7.397300E-04   7.397300E-04   7.397300E-04   7.397300E-04   7.397300E-04   7.397300E-04   7.397300E-04   7.397300E-04   7.397300E-04   7.397300E-04   7.397300E-04   7.397300E-04   7.397300E-04   7.397300E-04   7.397300E-04   7.397300E-04   7.397300E-04   7.397300E-04   7.397300E-04   7.397300E-04   7.397300E-04   7.397300E-04   7.397300E-04   7.397300E-04   7.397300E-04   7.397300E-04   7.397300E-04   7.397300E-04   7.397300E-04   7.397300E-04   6.575300E-04   6.575300E-04   6.575300E-04   6.575300E-04   6.575300E-04   6.575300E-04   6.575300E-04   6.575300E-04   6.575300E-04   6.575300E-04   0.000000E+00   0.000000E+00   0.000000E+00   0.000000E+00   0.000000E+00   0.000000E+00   0.000000E+00   0.000000E+00   0.000000E+00   0.000000E+00   0.000000E+00   0.000000E+00   0.000000E+00   0.000000E+00   0.000000E+00   0.000000E+00   0.000000E+00   0.000000E+00   0.000000E+00   0.000000E+00   0.000000E+00   0.000000E+00   0.000000E+00   0.000000E+00   0.000000E+00   0.000000E+00   0.000000E+00   0.000000E+00   0.000000E+00   0.000000E+00
   7.397300E-04   7.397300E-04   7.397300E-04   7.397300E-04   7.397300E-04   7.397300E-04   7.397300E-04   7.397300E-04   7.397300E-04   7.397300E-04   7.397300E-04   7.397300E-04   7.397300E-04   7.397300E-04   7.397300E-04   7.397300E-04   7.397300E-04   7.397300E-04   7.397300E-04   7.397300E-04   7.397300E-04   7.397300E-04   7.397300E-04   7.397300E-04   7.397300E-04   7.397300E-04   7.397300E-04   7.397300E-04   7.397300E-04   7.397300E-04   7.397300E-04   7.397300E-04   7.397300E-04   7.397300E-04   7.397300E-04   7.397300E-04   7.397300E-04   7.397300E-04   7.397300E-04   7.397300E-04   7.397300E-04   7.397300E-04   7.397300E-04   7.397300E-04   7.397300E-04   7.397300E-04   7.397300E-04   7.397300E-04   7.397300E-04   7.397300E-04   7.397300E-04   7.397300E-04   7.397300E-04   7.397300E-04   7.397300E-04   7.397300E-04   7.397300E-04   7.397300E-04   7.397300E-04   7.397300E-04   7.397300E-04   7.397300E-04   7.397300E-04   7.397300E-04   7.397300E-04   7.397300E-04   7.397300E-04   7.397300E-04   7.397300E-04   7.397300E-04   6.575300E-04   6.575300E-04   6.575300E-04   6.575300E-04   6.575300E-04   6.575300E-04   6.575300E-04   6.575300E-04   6.575300E-04   6.575300E-04   0.000000E+00   0.000000E+00   0.000000E+00   0.000000E+00   0.000000E+00   0.000000E+00   0.000000E+00   0.000000E+00   0.000000E+00   0.000000E+00   0.000000E+00   0.000000E+00   0.000000E+00   0.000000E+00   0.000000E+00   0.000000E+00   0.000000E+00   0.000000E+00   0.000000E+00   0.000000E+00   0.000000E+00   0.000000E+00   0.000000E+00   0.000000E+00   0.000000E+00   0.000000E+00   0.000000E+00   0.000000E+00   0.000000E+00   0.000000E+00
   7.397300E-04   7.397300E-04   7.397300E-04   7.397300E-04   7.397300E-04   7.397300E-04   7.397300E-04   7.397300E-04   7.397300E-04   7.397300E-04   7.397300E-04   7.397300E-04   7.397300E-04   7.397300E-04   7.397300E-04   7.397300E-04   7.397300E-04   7.397300E-04   7.397300E-04   7.397300E-04   7.397300E-04   7.397300E-04   7.397300E-04   7.397300E-04   7.397300E-04   7.397300E-04   7.397300E-04   7.397300E-04   7.397300E-04   7.397300E-04   7.397300E-04   7.397300E-04   7.397300E-04   7.397300E-04   7.397300E-04   7.397300E-04   7.397300E-04   7.397300E-04   7.397300E-04   7.397300E-04   7.397300E-04   7.397300E-04   7.397300E-04   7.397300E-04   7.397300E-04   7.397300E-04   7.397300E-04   7.397300E-04   7.397300E-04   7.397300E-04   7.397300E-04   7.397300E-04   7.397300E-04   7.397300E-04   7.397300E-04   7.397300E-04   7.397300E-04   7.397300E-04   7.397300E-04   7.397300E-04   7.397300E-04   7.397300E-04   7.397300E-04   7.397300E-04   7.397300E-04   7.397300E-04   7.397300E-04   7.397300E-04   7.397300E-04   7.397300E-04   6.575300E-04   6.575300E-04   6.575300E-04   6.575300E-04   6.575300E-04   6.575300E-04   6.575300E-04   6.575300E-04   6.575300E-04   6.575300E-04   0.000000E+00   0.000000E+00   0.000000E+00   0.000000E+00   0.000000E+00   0.000000E+00   0.000000E+00   0.000000E+00   0.000000E+00   0.000000E+00   0.000000E+00   0.000000E+00   0.000000E+00   0.000000E+00   0.000000E+00   0.000000E+00   0.000000E+00   0.000000E+00   0.000000E+00   0.000000E+00   0.000000E+00   0.000000E+00   0.000000E+00   0.000000E+00   0.000000E+00   0.000000E+00   0.000000E+00   0.000000E+00   0.000000E+00   0.000000E+00
   7.397300E-04   7.397300E-04   7.397300E-04   7.397300E-04   7.397300E-04   7.397300E-04   7.397300E-04   7.397300E-04   7.397300E-04   7.397300E-04   7.397300E-04   7.397300E-04   7.397300E-04   7.397300E-04   7.397300E-04   7.397300E-04   7.397300E-04   7.397300E-04   7.397300E-04   7.397300E-04   7.397300E-04   7.397300E-04   7.397300E-04   7.397300E-04   7.397300E-04   7.397300E-04   7.397300E-04   7.397300E-04   7.397300E-04   7.397300E-04   7.397300E-04   7.397300E-04   7.397300E-04   7.397300E-04   7.397300E-04   7.397300E-04   7.397300E-04   7.397300E-04   7.397300E-04   7.397300E-04   7.397300E-04   7.397300E-04   7.397300E-04   7.397300E-04   7.397300E-04   7.397300E-04   7.397300E-04   7.397300E-04   7.397300E-04   7.397300E-04   7.397300E-04   7.397300E-04   7.397300E-04   7.397300E-04   7.397300E-04   7.397300E-04   7.397300E-04   7.397300E-04   7.397300E-04   7.397300E-04   7.397300E-04   7.397300E-04   7.397300E-04   7.397300E-04   7.397300E-04   7.397300E-04   7.397300E-04   7.397300E-04   7.397300E-04   7.397300E-04   6.575300E-04   6.575300E-04   6.575300E-04   6.575300E-04   6.575300E-04   6.575300E-04   6.575300E-04   6.575300E-04   6.575300E-04   6.575300E-04   0.000000E+00   0.000000E+00   0.000000E+00   0.000000E+00   0.000000E+00   0.000000E+00   0.000000E+00   0.000000E+00   0.000000E+00   0.000000E+00   0.000000E+00   0.000000E+00   0.000000E+00   0.000000E+00   0.000000E+00   0.000000E+00   0.000000E+00   0.000000E+00   0.000000E+00   0.000000E+00   0.000000E+00   0.000000E+00   0.000000E+00   0.000000E+00   0.000000E+00   0.000000E+00   0.000000E+00   0.000000E+00   0.000000E+00   0.000000E+00