# GHB package for  MODFLOW-2005, generated by Flopy.
      3472         0
      3472         0 # stress period 1
         1         1         1           1e+30           200.0
         1         1         2           1e+30           200.0
         1         1         3           1e+30           200.0
         1         1         4           1e+30           200.0
         1         1         5           1e+30           200.0
         1         1         6           1e+30           200.0
         1         1         7           1e+30           200.0
         1         1         8           1e+30           200.0
         1         1         9           1e+30           200.0
         1         1        10           1e+30           200.0
         1         1        11           1e+30           200.0
         1         1        12           1e+30           200.0
         1         1        13           1e+30           200.0
         1         1        14           1e+30           200.0
         1         1        15           1e+30           200.0
         1         1        16           1e+30           200.0
         1         1        17           1e+30           200.0
         1         1        18           1e+30           200.0
         1         1        19           1e+30           200.0
         1         1        20           1e+30           200.0
         1         1        21           1e+30           200.0
         1         1        22           1e+30           200.0
         1         1        23           1e+30           200.0
         1         1        24           1e+30           200.0
         1         1        25           1e+30           200.0
         1         1        26           1e+30           200.0
         1         1        27           1e+30           200.0
         1         1        28           1e+30           200.0
         1         1        29           1e+30           200.0
         1         1        30           1e+30           200.0
         1         1        31           1e+30           200.0
         1         1        32           1e+30           200.0
         1         1        33           1e+30           200.0
         1         1        34           1e+30           200.0
         1         1        35           1e+30           200.0
         1         1        36           1e+30           200.0
         1         1        37           1e+30           200.0
         1         1        38           1e+30           200.0
         1         1        39           1e+30           200.0
         1         1        40           1e+30           200.0
         1         1        41           1e+30           200.0
         1         1        42           1e+30           200.0
         1         1        43           1e+30           200.0
         1         1        44           1e+30           200.0
         1         1        45           1e+30           200.0
         1         1        46           1e+30           200.0
         1         1        47           1e+30           200.0
         1         1        48           1e+30           200.0
         1         1        49           1e+30           200.0
         1         1        50           1e+30           200.0
         1         1        51           1e+30           200.0
         1         1        52           1e+30           200.0
         1         1        53           1e+30           200.0
         1         1        54           1e+30           200.0
         1         1        55           1e+30           200.0
         1         1        56           1e+30           200.0
         1         1        57           1e+30           200.0
         1         1        58           1e+30           200.0
         1         1        59           1e+30           200.0
         1         1        60           1e+30           200.0
         1         1        61           1e+30           200.0
         1         1        62           1e+30           200.0
         1         1        63           1e+30           200.0
         1         1        64           1e+30           200.0
         1         1        65           1e+30           200.0
         1         1        66           1e+30           200.0
         1         1        67           1e+30           200.0
         1         1        68           1e+30           200.0
         1         1        69           1e+30           200.0
         1         1        70           1e+30           200.0
         1         1        71           1e+30           200.0
         1         1        72           1e+30           200.0
         1         1        73           1e+30           200.0
         1         1        74           1e+30           200.0
         1         1        75           1e+30           200.0
         1         1        76           1e+30           200.0
         1         1        77           1e+30           200.0
         1         1        78           1e+30           200.0
         1         1        79           1e+30           200.0
         1         1        80           1e+30           200.0
         1         1        81             0.0           200.0
         1         1        82             0.0           200.0
         1         1        83             0.0           200.0
         1         1        84             0.0           200.0
         1         1        85             0.0           200.0
         1         1        86             0.0           200.0
         1         1        87             0.0           200.0
         1         1        88             0.0           200.0
         1         1        89             0.0           200.0
         1         1        90             0.0           200.0
         1         1        91             0.0           200.0
         1         1        92             0.0           200.0
         1         1        93             0.0           200.0
         1         1        94             0.0           200.0
         1         1        95             0.0           200.0
         1         1        96             0.0           200.0
         1         1        97             0.0           200.0
         1         1        98             0.0           200.0
         1         1        99             0.0           200.0
         1         1       100             0.0           200.0
         1         1       101             0.0           200.0
         1         1       102             0.0           200.0
         1         1       103             0.0           200.0
         1         1       104             0.0           200.0
         1         1       105             0.0           200.0
         1         1       106             0.0           200.0
         1         1       107             0.0           200.0
         1         1       108             0.0           200.0
         1         1       109             0.0           200.0
         1         1       110             0.0           200.0
         1         2         1           1e+30           200.0
         1         2       110             0.0           200.0
         1         3         1           1e+30           200.0
         1         3       110             0.0           200.0
         1         4         1           1e+30           200.0
         1         4       110             0.0           200.0
         1         5         1           1e+30           200.0
         1         5       110             0.0           200.0
         1         6         1           1e+30           200.0
         1         6       110             0.0           200.0
         1         7         1           1e+30           200.0
         1         7       110             0.0           200.0
         1         8         1           1e+30           200.0
         1         8       110             0.0           200.0
         1         9         1           1e+30           200.0
         1         9       110             0.0           200.0
         1        10         1           1e+30           200.0
         1        10       110             0.0           200.0
         1        11         1           1e+30           200.0
         1        11       110             0.0           200.0
         1        12         1           1e+30           200.0
         1        12       110             0.0           200.0
         1        13         1           1e+30           200.0
         1        13       110             0.0           200.0
         1        14         1           1e+30           200.0
         1        14       110             0.0           200.0
         1        15         1           1e+30           200.0
         1        15       110             0.0           200.0
         1        16         1           1e+30           200.0
         1        16       110             0.0           200.0
         1        17         1           1e+30           200.0
         1        17       110             0.0           200.0
         1        18         1           1e+30           200.0
         1        18       110             0.0           200.0
         1        19         1           1e+30           200.0
         1        19       110             0.0           200.0
         1        20         1           1e+30           200.0
         1        20       110             0.0           200.0
         1        21         1           1e+30           200.0
         1        21       110             0.0           200.0
         1        22         1           1e+30           200.0
         1        22       110             0.0           200.0
         1        23         1           1e+30           200.0
         1        23       110             0.0           200.0
         1        24         1           1e+30           200.0
         1        24       110             0.0           200.0
         1        25         1           1e+30           200.0
         1        25       110             0.0           200.0
         1        26         1           1e+30           200.0
         1        26       110             0.0           200.0
         1        27         1           1e+30           200.0
         1        27       110             0.0           200.0
         1        28         1           1e+30           200.0
         1        28       110             0.0           200.0
         1        29         1           1e+30           200.0
         1        29       110             0.0           200.0
         1        30         1           1e+30           200.0
         1        30       110             0.0           200.0
         1        31         1           1e+30           200.0
         1        31       110             0.0           200.0
         1        32         1           1e+30           200.0
         1        32       110             0.0           200.0
         1        33         1           1e+30           200.0
         1        33       110             0.0           200.0
         1        34         1           1e+30           200.0
         1        34       110             0.0           200.0
         1        35         1           1e+30           200.0
         1        35       110             0.0           200.0
         1        36         1           1e+30           200.0
         1        36       110             0.0           200.0
         1        37         1           1e+30           200.0
         1        37       110             0.0           200.0
         1        38         1           1e+30           200.0
         1        38       110             0.0           200.0
         1        39         1           1e+30           200.0
         1        39       110             0.0           200.0
         1        40         1           1e+30           200.0
         1        40       110             0.0           200.0
         1        41         1           1e+30           200.0
         1        41       110             0.0           200.0
         1        42         1           1e+30           200.0
         1        42       110             0.0           200.0
         1        43         1           1e+30           200.0
         1        43       110             0.0           200.0
         1        44         1           1e+30           200.0
         1        44       110             0.0           200.0
         1        45         1           1e+30           200.0
         1        45       110             0.0           200.0
         1        46         1           1e+30           200.0
         1        46       110             0.0           200.0
         1        47         1           1e+30           200.0
         1        47       110             0.0           200.0
         1        48         1           1e+30           200.0
         1        48       110             0.0           200.0
         1        49         1           1e+30           200.0
         1        49       110             0.0           200.0
         1        50         1           1e+30           200.0
         1        50       110             0.0           200.0
         1        51         1           1e+30           200.0
         1        51       110             0.0           200.0
         1        52         1           1e+30           200.0
         1        52       110             0.0           200.0
         1        53         1           1e+30           200.0
         1        53       110             0.0           200.0
         1        54         1           1e+30           200.0
         1        54       110             0.0           200.0
         1        55         1           1e+30           200.0
         1        55       110             0.0           200.0
         1        56         1           1e+30           200.0
         1        56       110             0.0           200.0
         1        57         1           1e+30           200.0
         1        57       110             0.0           200.0
         1        58         1           1e+30           200.0
         1        58       110             0.0           200.0
         1        59         1           1e+30           200.0
         1        59       110             0.0           200.0
         1        60         1           1e+30           200.0
         1        60       110             0.0           200.0
         1        61         1           1e+30           200.0
         1        61       110             0.0           200.0
         1        62         1           1e+30           200.0
         1        62       110             0.0           200.0
         1        63         1           1e+30           200.0
         1        63       110             0.0           200.0
         1        64         1           1e+30           200.0
         1        64       110             0.0           200.0
         1        65         1           1e+30           200.0
         1        65       110             0.0           200.0
         1        66         1           1e+30           200.0
         1        66       110             0.0           200.0
         1        67         1           1e+30           200.0
         1        67       110             0.0           200.0
         1        68         1           1e+30           200.0
         1        68       110             0.0           200.0
         1        69         1           1e+30           200.0
         1        69       110             0.0           200.0
         1        70         1           1e+30           200.0
         1        70       110             0.0           200.0
         1        71         1           1e+30           200.0
         1        71       110             0.0           200.0
         1        72         1           1e+30           200.0
         1        72       110             0.0           200.0
         1        73         1           1e+30           200.0
         1        73       110             0.0           200.0
         1        74         1           1e+30           200.0
         1        74       110             0.0           200.0
         1        75         1           1e+30           200.0
         1        75       110             0.0           200.0
         1        76         1           1e+30           200.0
         1        76       110             0.0           200.0
         1        77         1           1e+30           200.0
         1        77       110             0.0           200.0
         1        78         1           1e+30           200.0
         1        78       110             0.0           200.0
         1        79         1           1e+30           200.0
         1        79       110             0.0           200.0
         1        80         1           1e+30           200.0
         1        80       110             0.0           200.0
         1        81         1           1e+30           200.0
         1        81       110             0.0           200.0
         1        82         1           1e+30           200.0
         1        82       110             0.0           200.0
         1        83         1           1e+30           200.0
         1        83       110             0.0           200.0
         1        84         1           1e+30           200.0
         1        84       110             0.0           200.0
         1        85         1           1e+30           200.0
         1        85       110             0.0           200.0
         1        86         1           1e+30           200.0
         1        86       110             0.0           200.0
         1        87         1           1e+30           200.0
         1        87       110             0.0           200.0
         1        88         1           1e+30           200.0
         1        88       110             0.0           200.0
         1        89         1           1e+30           200.0
         1        89       110             0.0           200.0
         1        90         1           1e+30           200.0
         1        90       110             0.0           200.0
         1        91         1           1e+30           200.0
         1        91       110             0.0           200.0
         1        92         1           1e+30           200.0
         1        92       110             0.0           200.0
         1        93         1           1e+30           200.0
         1        93       110             0.0           200.0
         1        94         1           1e+30           200.0
         1        94       110             0.0           200.0
         1        95         1           1e+30           200.0
         1        95       110             0.0           200.0
         1        96         1           1e+30           200.0
         1        96       110             0.0           200.0
         1        97         1           1e+30           200.0
         1        97       110             0.0           200.0
         1        98         1           1e+30           200.0
         1        98       110             0.0           200.0
         1        99         1           1e+30           200.0
         1        99       110             0.0           200.0
         1       100         1           1e+30           200.0
         1       100       110             0.0           200.0
         1       101         1           1e+30           200.0
         1       101       110             0.0           200.0
         1       102         1           1e+30           200.0
         1       102       110             0.0           200.0
         1       103         1           1e+30           200.0
         1       103       110             0.0           200.0
         1       104         1           1e+30           200.0
         1       104       110             0.0           200.0
         1       105         1           1e+30           200.0
         1       105       110             0.0           200.0
         1       106         1           1e+30           200.0
         1       106       110             0.0           200.0
         1       107         1           1e+30           200.0
         1       107       110             0.0           200.0
         1       108         1           1e+30           200.0
         1       108       110             0.0           200.0
         1       109         1           1e+30           200.0
         1       109       110             0.0           200.0
         1       110         1           1e+30           200.0
         1       110       110             0.0           200.0
         1       111         1           1e+30           200.0
         1       111       110             0.0           200.0
         1       112         1           1e+30           200.0
         1       112       110             0.0           200.0
         1       113         1           1e+30           200.0
         1       113       110             0.0           200.0
         1       114         1           1e+30           200.0
         1       114       110             0.0           200.0
         1       115         1           1e+30           200.0
         1       115       110             0.0           200.0
         1       116         1           1e+30           200.0
         1       116       110             0.0           200.0
         1       117         1           1e+30           200.0
         1       117       110             0.0           200.0
         1       118         1           1e+30           200.0
         1       118       110             0.0           200.0
         1       119         1           1e+30           200.0
         1       119       110             0.0           200.0
         1       120         1           1e+30           200.0
         1       120       110             0.0           200.0
         1       121         1           1e+30           200.0
         1       121       110             0.0           200.0
         1       122         1           1e+30           200.0
         1       122       110             0.0           200.0
         1       123         1           1e+30           200.0
         1       123       110             0.0           200.0
         1       124         1           1e+30           200.0
         1       124       110             0.0           200.0
         1       125         1           1e+30           200.0
         1       125       110             0.0           200.0
         1       126         1           1e+30           200.0
         1       126       110             0.0           200.0
         1       127         1           1e+30           200.0
         1       127       110             0.0           200.0
         1       128         1           1e+30           200.0
         1       128       110             0.0           200.0
         1       129         1           1e+30           200.0
         1       129       110             0.0           200.0
         1       130         1           1e+30           200.0
         1       130       110             0.0           200.0
         1       131         1           1e+30           200.0
         1       131       110             0.0           200.0
         1       132         1           1e+30           200.0
         1       132       110             0.0           200.0
         1       133         1           1e+30           200.0
         1       133       110             0.0           200.0
         1       134         1           1e+30           200.0
         1       134       110             0.0           200.0
         1       135         1           1e+30           200.0
         1       135       110             0.0           200.0
         1       136         1           1e+30           200.0
         1       136       110             0.0           200.0
         1       137         1           1e+30           200.0
         1       137       110             0.0           200.0
         1       138         1           1e+30           200.0
         1       138       110             0.0           200.0
         1       139         1           1e+30           200.0
         1       139       110             0.0           200.0
         1       140         1           1e+30           200.0
         1       140         2           1e+30           200.0
         1       140         3           1e+30           200.0
         1       140         4           1e+30           200.0
         1       140         5           1e+30           200.0
         1       140         6           1e+30           200.0
         1       140         7           1e+30           200.0
         1       140         8           1e+30           200.0
         1       140         9           1e+30           200.0
         1       140        10           1e+30           200.0
         1       140        11           1e+30           200.0
         1       140        12           1e+30           200.0
         1       140        13           1e+30           200.0
         1       140        14           1e+30           200.0
         1       140        15           1e+30           200.0
         1       140        16           1e+30           200.0
         1       140        17           1e+30           200.0
         1       140        18           1e+30           200.0
         1       140        19           1e+30           200.0
         1       140        20           1e+30           200.0
         1       140        21           1e+30           200.0
         1       140        22           1e+30           200.0
         1       140        23           1e+30           200.0
         1       140        24           1e+30           200.0
         1       140        25           1e+30           200.0
         1       140        26           1e+30           200.0
         1       140        27           1e+30           200.0
         1       140        28           1e+30           200.0
         1       140        29           1e+30           200.0
         1       140        30           1e+30           200.0
         1       140        31           1e+30           200.0
         1       140        32           1e+30           200.0
         1       140        33           1e+30           200.0
         1       140        34           1e+30           200.0
         1       140        35           1e+30           200.0
         1       140        36           1e+30           200.0
         1       140        37           1e+30           200.0
         1       140        38           1e+30           200.0
         1       140        39           1e+30           200.0
         1       140        40           1e+30           200.0
         1       140        41           1e+30           200.0
         1       140        42           1e+30           200.0
         1       140        43           1e+30           200.0
         1       140        44           1e+30           200.0
         1       140        45           1e+30           200.0
         1       140        46           1e+30           200.0
         1       140        47           1e+30           200.0
         1       140        48           1e+30           200.0
         1       140        49           1e+30           200.0
         1       140        50           1e+30           200.0
         1       140        51           1e+30           200.0
         1       140        52           1e+30           200.0
         1       140        53           1e+30           200.0
         1       140        54           1e+30           200.0
         1       140        55           1e+30           200.0
         1       140        56           1e+30           200.0
         1       140        57           1e+30           200.0
         1       140        58           1e+30           200.0
         1       140        59           1e+30           200.0
         1       140        60           1e+30           200.0
         1       140        61           1e+30           200.0
         1       140        62           1e+30           200.0
         1       140        63           1e+30           200.0
         1       140        64           1e+30           200.0
         1       140        65           1e+30           200.0
         1       140        66           1e+30           200.0
         1       140        67           1e+30           200.0
         1       140        68           1e+30           200.0
         1       140        69           1e+30           200.0
         1       140        70           1e+30           200.0
         1       140        71           1e+30           200.0
         1       140        72           1e+30           200.0
         1       140        73           1e+30           200.0
         1       140        74           1e+30           200.0
         1       140        75           1e+30           200.0
         1       140        76           1e+30           200.0
         1       140        77           1e+30           200.0
         1       140        78           1e+30           200.0
         1       140        79           1e+30           200.0
         1       140        80           1e+30           200.0
         1       140        81             0.0           200.0
         1       140        82             0.0           200.0
         1       140        83             0.0           200.0
         1       140        84             0.0           200.0
         1       140        85             0.0           200.0
         1       140        86             0.0           200.0
         1       140        87             0.0           200.0
         1       140        88             0.0           200.0