# LMT6 package for  MODFLOW-2005, generated by Flopy.
OUTPUT_FILE_NAME landelina.ftl
OUTPUT_FILE_UNIT             54
OUTPUT_FILE_HEADER extended
OUTPUT_FILE_FORMAT formatted
