## BTN for MT3DMS, generated by Flopy.
##
         7       140       110         1         1         1
D   M   KG  
T T T F T 
 1 2 0 0 0 0 0
         0        10                           -1 #delr
         0        10                           -1 #delc
        31         1         (110E15.6)        -1 #htop
   7.901700E+00   7.901700E+00   7.901700E+00   7.901700E+00   7.901700E+00   7.901700E+00   7.901700E+00   7.901700E+00   7.901700E+00   7.901700E+00   8.260300E+00   8.260300E+00   8.260300E+00   8.260300E+00   8.260300E+00   8.260300E+00   8.260300E+00   8.260300E+00   8.260300E+00   8.260300E+00   7.856100E+00   7.856100E+00   7.856100E+00   7.856100E+00   7.856100E+00   7.856100E+00   7.856100E+00   7.856100E+00   7.856100E+00   7.856100E+00   7.414200E+00   7.414200E+00   7.414200E+00   7.414200E+00   7.414200E+00   7.414200E+00   7.414200E+00   7.414200E+00   7.414200E+00   7.414200E+00   7.124600E+00   7.124600E+00   7.124600E+00   7.124600E+00   7.124600E+00   7.124600E+00   7.124600E+00   7.124600E+00   7.124600E+00   7.124600E+00   5.242200E+00   5.242200E+00   5.242200E+00   5.242200E+00   5.242200E+00   5.242200E+00   5.242200E+00   5.242200E+00   5.242200E+00   5.242200E+00   2.841900E+00   2.841900E+00   2.841900E+00   2.841900E+00   2.841900E+00   2.841900E+00   2.841900E+00   2.841900E+00   2.841900E+00   2.841900E+00   1.152800E+00   1.152800E+00   1.152800E+00   1.152800E+00   1.152800E+00   1.152800E+00   1.152800E+00   1.152800E+00   1.152800E+00   1.152800E+00   2.795700E-01   2.795700E-01   2.795700E-01   2.795700E-01   2.795700E-01   2.795700E-01   2.795700E-01   2.795700E-01   2.795700E-01   2.795700E-01   0.000000E+00   0.000000E+00   0.000000E+00   0.000000E+00   0.000000E+00   0.000000E+00   0.000000E+00   0.000000E+00   0.000000E+00   0.000000E+00   0.000000E+00   0.000000E+00   0.000000E+00   0.000000E+00   0.000000E+00   0.000000E+00   0.000000E+00   0.000000E+00   0.000000E+00   0.000000E+00
   7.901700E+00   7.901700E+00   7.901700E+00   7.901700E+00   7.901700E+00   7.901700E+00   7.901700E+00   7.901700E+00   7.901700E+00   7.901700E+00   8.260300E+00   8.260300E+00   8.260300E+00   8.260300E+00   8.260300E+00   8.260300E+00   8.260300E+00   8.260300E+00   8.260300E+00   8.260300E+00   7.856100E+00   7.856100E+00   7.856100E+00   7.856100E+00   7.856100E+00   7.856100E+00   7.856100E+00   7.856100E+00   7.856100E+00   7.856100E+00   7.414200E+00   7.414200E+00   7.414200E+00   7.414200E+00   7.414200E+00   7.414200E+00   7.414200E+00   7.414200E+00   7.414200E+00   7.414200E+00   7.124600E+00   7.124600E+00   7.124600E+00   7.124600E+00   7.124600E+00   7.124600E+00   7.124600E+00   7.124600E+00   7.124600E+00   7.124600E+00   5.242200E+00   5.242200E+00   5.242200E+00   5.242200E+00   5.242200E+00   5.242200E+00   5.242200E+00   5.242200E+00   5.242200E+00   5.242200E+00   2.841900E+00   2.841900E+00   2.841900E+00   2.841900E+00   2.841900E+00   2.841900E+00   2.841900E+00   2.841900E+00   2.841900E+00   2.841900E+00   1.152800E+00   1.152800E+00   1.152800E+00   1.152800E+00   1.152800E+00   1.152800E+00   1.152800E+00   1.152800E+00   1.152800E+00   1.152800E+00   2.795700E-01   2.795700E-01   2.795700E-01   2.795700E-01   2.795700E-01   2.795700E-01   2.795700E-01   2.795700E-01   2.795700E-01   2.795700E-01   0.000000E+00   0.000000E+00   0.000000E+00   0.000000E+00   0.000000E+00   0.000000E+00   0.000000E+00   0.000000E+00   0.000000E+00   0.000000E+00   0.000000E+00   0.000000E+00   0.000000E+00   0.000000E+00   0.000000E+00   0.000000E+00   0.000000E+00   0.000000E+00   0.000000E+00   0.000000E+00
   7.901700E+00   7.901700E+00   7.901700E+00   7.901700E+00   7.901700E+00   7.901700E+00   7.901700E+00   7.901700E+00   7.901700E+00   7.901700E+00   8.260300E+00   8.260300E+00   8.260300E+00   8.260300E+00   8.260300E+00   8.260300E+00   8.260300E+00   8.260300E+00   8.260300E+00   8.260300E+00   7.856100E+00   7.856100E+00   7.856100E+00   7.856100E+00   7.856100E+00   7.856100E+00   7.856100E+00   7.856100E+00   7.856100E+00   7.856100E+00   7.414200E+00   7.414200E+00   7.414200E+00   7.414200E+00   7.414200E+00   7.414200E+00   7.414200E+00   7.414200E+00   7.414200E+00   7.414200E+00   7.124600E+00   7.124600E+00   7.124600E+00   7.124600E+00   7.124600E+00   7.124600E+00   7.124600E+00   7.124600E+00   7.124600E+00   7.124600E+00   5.242200E+00   5.242200E+00   5.242200E+00   5.242200E+00   5.242200E+00   5.242200E+00   5.242200E+00   5.242200E+00   5.242200E+00   5.242200E+00   2.841900E+00   2.841900E+00   2.841900E+00   2.841900E+00   2.841900E+00   2.841900E+00   2.841900E+00   2.841900E+00   2.841900E+00   2.841900E+00   1.152800E+00   1.152800E+00   1.152800E+00   1.152800E+00   1.152800E+00   1.152800E+00   1.152800E+00   1.152800E+00   1.152800E+00   1.152800E+00   2.795700E-01   2.795700E-01   2.795700E-01   2.795700E-01   2.795700E-01   2.795700E-01   2.795700E-01   2.795700E-01   2.795700E-01   2.795700E-01   0.000000E+00   0.000000E+00   0.000000E+00   0.000000E+00   0.000000E+00   0.000000E+00   0.000000E+00   0.000000E+00   0.000000E+00   0.000000E+00   0.000000E+00   0.000000E+00   0.000000E+00   0.000000E+00   0.000000E+00   0.000000E+00   0.000000E+00   0.000000E+00   0.000000E+00   0.000000E+00
   7.901700E+00   7.901700E+00   7.901700E+00   7.901700E+00   7.901700E+00   7.901700E+00   7.901700E+00   7.901700E+00   7.901700E+00   7.901700E+00   8.260300E+00   8.260300E+00   8.260300E+00   8.260300E+00   8.260300E+00   8.260300E+00   8.260300E+00   8.260300E+00   8.260300E+00   8.260300E+00   7.856100E+00   7.856100E+00   7.856100E+00   7.856100E+00   7.856100E+00   7.856100E+00   7.856100E+00   7.856100E+00   7.856100E+00   7.856100E+00   7.414200E+00   7.414200E+00   7.414200E+00   7.414200E+00   7.414200E+00   7.414200E+00   7.414200E+00   7.414200E+00   7.414200E+00   7.414200E+00   7.124600E+00   7.124600E+00   7.124600E+00   7.124600E+00   7.124600E+00   7.124600E+00   7.124600E+00   7.124600E+00   7.124600E+00   7.124600E+00   5.242200E+00   5.242200E+00   5.242200E+00   5.242200E+00   5.242200E+00   5.242200E+00   5.242200E+00   5.242200E+00   5.242200E+00   5.242200E+00   2.841900E+00   2.841900E+00   2.841900E+00   2.841900E+00   2.841900E+00   2.841900E+00   2.841900E+00   2.841900E+00   2.841900E+00   2.841900E+00   1.152800E+00   1.152800E+00   1.152800E+00   1.152800E+00   1.152800E+00   1.152800E+00   1.152800E+00   1.152800E+00   1.152800E+00   1.152800E+00   2.795700E-01   2.795700E-01   2.795700E-01   2.795700E-01   2.795700E-01   2.795700E-01   2.795700E-01   2.795700E-01   2.795700E-01   2.795700E-01   0.000000E+00   0.000000E+00   0.000000E+00   0.000000E+00   0.000000E+00   0.000000E+00   0.000000E+00   0.000000E+00   0.000000E+00   0.000000E+00   0.000000E+00   0.000000E+00   0.000000E+00   0.000000E+00   0.000000E+00   0.000000E+00   0.000000E+00   0.000000E+00   0.000000E+00   0.000000E+00
   7.901700E+00   7.901700E+00   7.901700E+00   7.901700E+00   7.901700E+00   7.901700E+00   7.901700E+00   7.901700E+00   7.901700E+00   7.901700E+00   8.260300E+00   8.260300E+00   8.260300E+00   8.260300E+00   8.260300E+00   8.260300E+00   8.260300E+00   8.260300E+00   8.260300E+00   8.260300E+00   7.856100E+00   7.856100E+00   7.856100E+00   7.856100E+00   7.856100E+00   7.856100E+00   7.856100E+00   7.856100E+00   7.856100E+00   7.856100E+00   7.414200E+00   7.414200E+00   7.414200E+00   7.414200E+00   7.414200E+00   7.414200E+00   7.414200E+00   7.414200E+00   7.414200E+00   7.414200E+00   7.124600E+00   7.124600E+00   7.124600E+00   7.124600E+00   7.124600E+00   7.124600E+00   7.124600E+00   7.124600E+00   7.124600E+00   7.124600E+00   5.242200E+00   5.242200E+00   5.242200E+00   5.242200E+00   5.242200E+00   5.242200E+00   5.242200E+00   5.242200E+00   5.242200E+00   5.242200E+00   2.841900E+00   2.841900E+00   2.841900E+00   2.841900E+00   2.841900E+00   2.841900E+00   2.841900E+00   2.841900E+00   2.841900E+00   2.841900E+00   1.152800E+00   1.152800E+00   1.152800E+00   1.152800E+00   1.152800E+00   1.152800E+00   1.152800E+00   1.152800E+00   1.152800E+00   1.152800E+00   2.795700E-01   2.795700E-01   2.795700E-01   2.795700E-01   2.795700E-01   2.795700E-01   2.795700E-01   2.795700E-01   2.795700E-01   2.795700E-01   0.000000E+00   0.000000E+00   0.000000E+00   0.000000E+00   0.000000E+00   0.000000E+00   0.000000E+00   0.000000E+00   0.000000E+00   0.000000E+00   0.000000E+00   0.000000E+00   0.000000E+00   0.000000E+00   0.000000E+00   0.000000E+00   0.000000E+00   0.000000E+00   0.000000E+00   0.000000E+00
   7.901700E+00   7.901700E+00   7.901700E+00   7.901700E+00   7.901700E+00   7.901700E+00   7.901700E+00   7.901700E+00   7.901700E+00   7.901700E+00   8.260300E+00   8.260300E+00   8.260300E+00   8.260300E+00   8.260300E+00   8.260300E+00   8.260300E+00   8.260300E+00   8.260300E+00   8.260300E+00   7.856100E+00   7.856100E+00   7.856100E+00   7.856100E+00   7.856100E+00   7.856100E+00   7.856100E+00   7.856100E+00   7.856100E+00   7.856100E+00   7.414200E+00   7.414200E+00   7.414200E+00   7.414200E+00   7.414200E+00   7.414200E+00   7.414200E+00   7.414200E+00   7.414200E+00   7.414200E+00   7.124600E+00   7.124600E+00   7.124600E+00   7.124600E+00   7.124600E+00   7.124600E+00   7.124600E+00   7.124600E+00   7.124600E+00   7.124600E+00   5.242200E+00   5.242200E+00   5.242200E+00   5.242200E+00   5.242200E+00   5.242200E+00   5.242200E+00   5.242200E+00   5.242200E+00   5.242200E+00   2.841900E+00   2.841900E+00   2.841900E+00   2.841900E+00   2.841900E+00   2.841900E+00   2.841900E+00   2.841900E+00   2.841900E+00   2.841900E+00   1.152800E+00   1.152800E+00   1.152800E+00   1.152800E+00   1.152800E+00   1.152800E+00   1.152800E+00   1.152800E+00   1.152800E+00   1.152800E+00   2.795700E-01   2.795700E-01   2.795700E-01   2.795700E-01   2.795700E-01   2.795700E-01   2.795700E-01   2.795700E-01   2.795700E-01   2.795700E-01   0.000000E+00   0.000000E+00   0.000000E+00   0.000000E+00   0.000000E+00   0.000000E+00   0.000000E+00   0.000000E+00   0.000000E+00   0.000000E+00   0.000000E+00   0.000000E+00   0.000000E+00   0.000000E+00   0.000000E+00   0.000000E+00   0.000000E+00   0.000000E+00   0.000000E+00   0.000000E+00
   7.901700E+00   7.901700E+00   7.901700E+00   7.901700E+00   7.901700E+00   7.901700E+00   7.901700E+00   7.901700E+00   7.901700E+00   7.901700E+00   8.260300E+00   8.260300E+00   8.260300E+00   8.260300E+00   8.260300E+00   8.260300E+00   8.260300E+00   8.260300E+00   8.260300E+00   8.260300E+00   7.856100E+00   7.856100E+00   7.856100E+00   7.856100E+00   7.856100E+00   7.856100E+00   7.856100E+00   7.856100E+00   7.856100E+00   7.856100E+00   7.414200E+00   7.414200E+00   7.414200E+00   7.414200E+00   7.414200E+00   7.414200E+00   7.414200E+00   7.414200E+00   7.414200E+00   7.414200E+00   7.124600E+00   7.124600E+00   7.124600E+00   7.124600E+00   7.124600E+00   7.124600E+00   7.124600E+00   7.124600E+00   7.124600E+00   7.124600E+00   5.242200E+00   5.242200E+00   5.242200E+00   5.242200E+00   5.242200E+00   5.242200E+00   5.242200E+00   5.242200E+00   5.242200E+00   5.242200E+00   2.841900E+00   2.841900E+00   2.841900E+00   2.841900E+00   2.841900E+00   2.841900E+00   2.841900E+00   2.841900E+00   2.841900E+00   2.841900E+00   1.152800E+00   1.152800E+00   1.152800E+00   1.152800E+00   1.152800E+00   1.152800E+00   1.152800E+00   1.152800E+00   1.152800E+00   1.152800E+00   2.795700E-01   2.795700E-01   2.795700E-01   2.795700E-01   2.795700E-01   2.795700E-01   2.795700E-01   2.795700E-01   2.795700E-01   2.795700E-01   0.000000E+00   0.000000E+00   0.000000E+00   0.000000E+00   0.000000E+00   0.000000E+00   0.000000E+00   0.000000E+00   0.000000E+00   0.000000E+00   0.000000E+00   0.000000E+00   0.000000E+00   0.000000E+00   0.000000E+00   0.000000E+00   0.000000E+00   0.000000E+00   0.000000E+00   0.000000E+00
   7.901700E+00   7.901700E+00   7.901700E+00   7.901700E+00   7.901700E+00   7.901700E+00   7.901700E+00   7.901700E+00   7.901700E+00   7.901700E+00   8.260300E+00   8.260300E+00   8.260300E+00   8.260300E+00   8.260300E+00   8.260300E+00   8.260300E+00   8.260300E+00   8.260300E+00   8.260300E+00   7.856100E+00   7.856100E+00   7.856100E+00   7.856100E+00   7.856100E+00   7.856100E+00   7.856100E+00   7.856100E+00   7.856100E+00   7.856100E+00   7.414200E+00   7.414200E+00   7.414200E+00   7.414200E+00   7.414200E+00   7.414200E+00   7.414200E+00   7.414200E+00   7.414200E+00   7.414200E+00   7.124600E+00   7.124600E+00   7.124600E+00   7.124600E+00   7.124600E+00   7.124600E+00   7.124600E+00   7.124600E+00   7.124600E+00   7.124600E+00   5.242200E+00   5.242200E+00   5.242200E+00   5.242200E+00   5.242200E+00   5.242200E+00   5.242200E+00   5.242200E+00   5.242200E+00   5.242200E+00   2.841900E+00   2.841900E+00   2.841900E+00   2.841900E+00   2.841900E+00   2.841900E+00   2.841900E+00   2.841900E+00   2.841900E+00   2.841900E+00   1.152800E+00   1.152800E+00   1.152800E+00   1.152800E+00   1.152800E+00   1.152800E+00   1.152800E+00   1.152800E+00   1.152800E+00   1.152800E+00   2.795700E-01   2.795700E-01   2.795700E-01   2.795700E-01   2.795700E-01   2.795700E-01   2.795700E-01   2.795700E-01   2.795700E-01   2.795700E-01   0.000000E+00   0.000000E+00   0.000000E+00   0.000000E+00   0.000000E+00   0.000000E+00   0.000000E+00   0.000000E+00   0.000000E+00   0.000000E+00   0.000000E+00   0.000000E+00   0.000000E+00   0.000000E+00   0.000000E+00   0.000000E+00   0.000000E+00   0.000000E+00   0.000000E+00   0.000000E+00
   7.901700E+00   7.901700E+00   7.901700E+00   7.901700E+00   7.901700E+00   7.901700E+00   7.901700E+00   7.901700E+00   7.901700E+00   7.901700E+00   8.260300E+00   8.260300E+00   8.260300E+00   8.260300E+00   8.260300E+00   8.260300E+00   8.260300E+00   8.260300E+00   8.260300E+00   8.260300E+00   7.856100E+00   7.856100E+00   7.856100E+00   7.856100E+00   7.856100E+00   7.856100E+00   7.856100E+00   7.856100E+00   7.856100E+00   7.856100E+00   7.414200E+00   7.414200E+00   7.414200E+00   7.414200E+00   7.414200E+00   7.414200E+00   7.414200E+00   7.414200E+00   7.414200E+00   7.414200E+00   7.124600E+00   7.124600E+00   7.124600E+00   7.124600E+00   7.124600E+00   7.124600E+00   7.124600E+00   7.124600E+00   7.124600E+00   7.124600E+00   5.242200E+00   5.242200E+00   5.242200E+00   5.242200E+00   5.242200E+00   5.242200E+00   5.242200E+00   5.242200E+00   5.242200E+00   5.242200E+00   2.841900E+00   2.841900E+00   2.841900E+00   2.841900E+00   2.841900E+00   2.841900E+00   2.841900E+00   2.841900E+00   2.841900E+00   2.841900E+00   1.152800E+00   1.152800E+00   1.152800E+00   1.152800E+00   1.152800E+00   1.152800E+00   1.152800E+00   1.152800E+00   1.152800E+00   1.152800E+00   2.795700E-01   2.795700E-01   2.795700E-01   2.795700E-01   2.795700E-01   2.795700E-01   2.795700E-01   2.795700E-01   2.795700E-01   2.795700E-01   0.000000E+00   0.000000E+00   0.000000E+00   0.000000E+00   0.000000E+00   0.000000E+00   0.000000E+00   0.000000E+00   0.000000E+00   0.000000E+00   0.000000E+00   0.000000E+00   0.000000E+00   0.000000E+00   0.000000E+00   0.000000E+00   0.000000E+00   0.000000E+00   0.000000E+00   0.000000E+00
   7.901700E+00   7.901700E+00   7.901700E+00   7.901700E+00   7.901700E+00   7.901700E+00   7.901700E+00   7.901700E+00   7.901700E+00   7.901700E+00   8.260300E+00   8.260300E+00   8.260300E+00   8.260300E+00   8.260300E+00   8.260300E+00   8.260300E+00   8.260300E+00   8.260300E+00   8.260300E+00   7.856100E+00   7.856100E+00   7.856100E+00   7.856100E+00   7.856100E+00   7.856100E+00   7.856100E+00   7.856100E+00   7.856100E+00   7.856100E+00   7.414200E+00   7.414200E+00   7.414200E+00   7.414200E+00   7.414200E+00   7.414200E+00   7.414200E+00   7.414200E+00   7.414200E+00   7.414200E+00   7.124600E+00   7.124600E+00   7.124600E+00   7.124600E+00   7.124600E+00   7.124600E+00   7.124600E+00   7.124600E+00   7.124600E+00   7.124600E+00   5.242200E+00   5.242200E+00   5.242200E+00   5.242200E+00   5.242200E+00   5.242200E+00   5.242200E+00   5.242200E+00   5.242200E+00   5.242200E+00   2.841900E+00   2.841900E+00   2.841900E+00   2.841900E+00   2.841900E+00   2.841900E+00   2.841900E+00   2.841900E+00   2.841900E+00   2.841900E+00   1.152800E+00   1.152800E+00   1.152800E+00   1.152800E+00   1.152800E+00   1.152800E+00   1.152800E+00   1.152800E+00   1.152800E+00   1.152800E+00   2.795700E-01   2.795700E-01   2.795700E-01   2.795700E-01   2.795700E-01   2.795700E-01   2.795700E-01   2.795700E-01   2.795700E-01   2.795700E-01   0.000000E+00   0.000000E+00   0.000000E+00   0.000000E+00   0.000000E+00   0.000000E+00   0.000000E+00   0.000000E+00   0.000000E+00   0.000000E+00   0.000000E+00   0.000000E+00   0.000000E+00   0.000000E+00   0.000000E+00   0.000000E+00   0.000000E+00   0.000000E+00   0.000000E+00   0.000000E+00
   7.748100E+00   7.748100E+00   7.748100E+00   7.748100E+00   7.748100E+00   7.748100E+00   7.748100E+00   7.748100E+00   7.748100E+00   7.748100E+00   7.425300E+00   7.425300E+00   7.425300E+00   7.425300E+00   7.425300E+00   7.425300E+00   7.425300E+00   7.425300E+00   7.425300E+00   7.425300E+00   7.172400E+00   7.172400E+00   7.172400E+00   7.172400E+00   7.172400E+00   7.172400E+00   7.172400E+00   7.172400E+00   7.172400E+00   7.172400E+00   7.224400E+00   7.224400E+00   7.224400E+00   7.224400E+00   7.224400E+00   7.224400E+00   7.224400E+00   7.224400E+00   7.224400E+00   7.224400E+00   7.046900E+00   7.046900E+00   7.046900E+00   7.046900E+00   7.046900E+00   7.046900E+00   7.046900E+00   7.046900E+00   7.046900E+00   7.046900E+00   5.947000E+00   5.947000E+00   5.947000E+00   5.947000E+00   5.947000E+00   5.947000E+00   5.947000E+00   5.947000E+00   5.947000E+00   5.947000E+00   3.303300E+00   3.303300E+00   3.303300E+00   3.303300E+00   3.303300E+00   3.303300E+00   3.303300E+00   3.303300E+00   3.303300E+00   3.303300E+00   5.413400E-01   5.413400E-01   5.413400E-01   5.413400E-01   5.413400E-01   5.413400E-01   5.413400E-01   5.413400E-01   5.413400E-01   5.413400E-01   0.000000E+00   0.000000E+00   0.000000E+00   0.000000E+00   0.000000E+00   0.000000E+00   0.000000E+00   0.000000E+00   0.000000E+00   0.000000E+00   0.000000E+00   0.000000E+00   0.000000E+00   0.000000E+00   0.000000E+00   0.000000E+00   0.000000E+00   0.000000E+00   0.000000E+00   0.000000E+00   0.000000E+00   0.000000E+00   0.000000E+00   0.000000E+00   0.000000E+00   0.000000E+00   0.000000E+00   0.000000E+00   0.000000E+00   0.000000E+00
   7.748100E+00   7.748100E+00   7.748100E+00   7.748100E+00   7.748100E+00   7.748100E+00   7.748100E+00   7.748100E+00   7.748100E+00   7.748100E+00   7.425300E+00   7.425300E+00   7.425300E+00   7.425300E+00   7.425300E+00   7.425300E+00   7.425300E+00   7.425300E+00   7.425300E+00   7.425300E+00   7.172400E+00   7.172400E+00   7.172400E+00   7.172400E+00   7.172400E+00   7.172400E+00   7.172400E+00   7.172400E+00   7.172400E+00   7.172400E+00   7.224400E+00   7.224400E+00   7.224400E+00   7.224400E+00   7.224400E+00   7.224400E+00   7.224400E+00   7.224400E+00   7.224400E+00   7.224400E+00   7.046900E+00   7.046900E+00   7.046900E+00   7.046900E+00   7.046900E+00   7.046900E+00   7.046900E+00   7.046900E+00   7.046900E+00   7.046900E+00   5.947000E+00   5.947000E+00   5.947000E+00   5.947000E+00   5.947000E+00   5.947000E+00   5.947000E+00   5.947000E+00   5.947000E+00   5.947000E+00   3.303300E+00   3.303300E+00   3.303300E+00   3.303300E+00   3.303300E+00   3.303300E+00   3.303300E+00   3.303300E+00   3.303300E+00   3.303300E+00   5.413400E-01   5.413400E-01   5.413400E-01   5.413400E-01   5.413400E-01   5.413400E-01   5.413400E-01   5.413400E-01   5.413400E-01   5.413400E-01   0.000000E+00   0.000000E+00   0.000000E+00   0.000000E+00   0.000000E+00   0.000000E+00   0.000000E+00   0.000000E+00   0.000000E+00   0.000000E+00   0.000000E+00   0.000000E+00   0.000000E+00   0.000000E+00   0.000000E+00   0.000000E+00   0.000000E+00   0.000000E+00   0.000000E+00   0.000000E+00   0.000000E+00   0.000000E+00   0.000000E+00   0.000000E+00   0.000000E+00   0.000000E+00   0.000000E+00   0.000000E+00   0.000000E+00   0.000000E+00
   7.748100E+00   7.748100E+00   7.748100E+00   7.748100E+00   7.748100E+00   7.748100E+00   7.748100E+00   7.748100E+00   7.748100E+00   7.748100E+00   7.425300E+00   7.425300E+00   7.425300E+00   7.425300E+00   7.425300E+00   7.425300E+00   7.425300E+00   7.425300E+00   7.425300E+00   7.425300E+00   7.172400E+00   7.172400E+00   7.172400E+00   7.172400E+00   7.172400E+00   7.172400E+00   7.172400E+00   7.172400E+00   7.172400E+00   7.172400E+00   7.224400E+00   7.224400E+00   7.224400E+00   7.224400E+00   7.224400E+00   7.224400E+00   7.224400E+00   7.224400E+00   7.224400E+00   7.224400E+00   7.046900E+00   7.046900E+00   7.046900E+00   7.046900E+00   7.046900E+00   7.046900E+00   7.046900E+00   7.046900E+00   7.046900E+00   7.046900E+00   5.947000E+00   5.947000E+00   5.947000E+00   5.947000E+00   5.947000E+00   5.947000E+00   5.947000E+00   5.947000E+00   5.947000E+00   5.947000E+00   3.303300E+00   3.303300E+00   3.303300E+00   3.303300E+00   3.303300E+00   3.303300E+00   3.303300E+00   3.303300E+00   3.303300E+00   3.303300E+00   5.413400E-01   5.413400E-01   5.413400E-01   5.413400E-01   5.413400E-01   5.413400E-01   5.413400E-01   5.413400E-01   5.413400E-01   5.413400E-01   0.000000E+00   0.000000E+00   0.000000E+00   0.000000E+00   0.000000E+00   0.000000E+00   0.000000E+00   0.000000E+00   0.000000E+00   0.000000E+00   0.000000E+00   0.000000E+00   0.000000E+00   0.000000E+00   0.000000E+00   0.000000E+00   0.000000E+00   0.000000E+00   0.000000E+00   0.000000E+00   0.000000E+00   0.000000E+00   0.000000E+00   0.000000E+00   0.000000E+00   0.000000E+00   0.000000E+00   0.000000E+00   0.000000E+00   0.000000E+00
   7.748100E+00   7.748100E+00   7.748100E+00   7.748100E+00   7.748100E+00   7.748100E+00   7.748100E+00   7.748100E+00   7.748100E+00   7.748100E+00   7.425300E+00   7.425300E+00   7.425300E+00   7.425300E+00   7.425300E+00   7.425300E+00   7.425300E+00   7.425300E+00   7.425300E+00   7.425300E+00   7.172400E+00   7.172400E+00   7.172400E+00   7.172400E+00   7.172400E+00   7.172400E+00   7.172400E+00   7.172400E+00   7.172400E+00   7.172400E+00   7.224400E+00   7.224400E+00   7.224400E+00   7.224400E+00   7.224400E+00   7.224400E+00   7.224400E+00   7.224400E+00   7.224400E+00   7.224400E+00   7.046900E+00   7.046900E+00   7.046900E+00   7.046900E+00   7.046900E+00   7.046900E+00   7.046900E+00   7.046900E+00   7.046900E+00   7.046900E+00   5.947000E+00   5.947000E+00   5.947000E+00   5.947000E+00   5.947000E+00   5.947000E+00   5.947000E+00   5.947000E+00   5.947000E+00   5.947000E+00   3.303300E+00   3.303300E+00   3.303300E+00   3.303300E+00   3.303300E+00   3.303300E+00   3.303300E+00   3.303300E+00   3.303300E+00   3.303300E+00   5.413400E-01   5.413400E-01   5.413400E-01   5.413400E-01   5.413400E-01   5.413400E-01   5.413400E-01   5.413400E-01   5.413400E-01   5.413400E-01   0.000000E+00   0.000000E+00   0.000000E+00   0.000000E+00   0.000000E+00   0.000000E+00   0.000000E+00   0.000000E+00   0.000000E+00   0.000000E+00   0.000000E+00   0.000000E+00   0.000000E+00   0.000000E+00   0.000000E+00   0.000000E+00   0.000000E+00   0.000000E+00   0.000000E+00   0.000000E+00   0.000000E+00   0.000000E+00   0.000000E+00   0.000000E+00   0.000000E+00   0.000000E+00   0.000000E+00   0.000000E+00   0.000000E+00   0.000000E+00
   7.748100E+00   7.748100E+00   7.748100E+00   7.748100E+00   7.748100E+00   7.748100E+00   7.748100E+00   7.748100E+00   7.748100E+00   7.748100E+00   7.425300E+00   7.425300E+00   7.425300E+00   7.425300E+00   7.425300E+00   7.425300E+00   7.425300E+00   7.425300E+00   7.425300E+00   7.425300E+00   7.172400E+00   7.172400E+00   7.172400E+00   7.172400E+00   7.172400E+00   7.172400E+00   7.172400E+00   7.172400E+00   7.172400E+00   7.172400E+00   7.224400E+00   7.224400E+00   7.224400E+00   7.224400E+00   7.224400E+00   7.224400E+00   7.224400E+00   7.224400E+00   7.224400E+00   7.224400E+00   7.046900E+00   7.046900E+00   7.046900E+00   7.046900E+00   7.046900E+00   7.046900E+00   7.046900E+00   7.046900E+00   7.046900E+00   7.046900E+00   5.947000E+00   5.947000E+00   5.947000E+00   5.947000E+00   5.947000E+00   5.947000E+00   5.947000E+00   5.947000E+00   5.947000E+00   5.947000E+00   3.303300E+00   3.303300E+00   3.303300E+00   3.303300E+00   3.303300E+00   3.303300E+00   3.303300E+00   3.303300E+00   3.303300E+00   3.303300E+00   5.413400E-01   5.413400E-01   5.413400E-01   5.413400E-01   5.413400E-01   5.413400E-01   5.413400E-01   5.413400E-01   5.413400E-01   5.413400E-01   0.000000E+00   0.000000E+00   0.000000E+00   0.000000E+00   0.000000E+00   0.000000E+00   0.000000E+00   0.000000E+00   0.000000E+00   0.000000E+00   0.000000E+00   0.000000E+00   0.000000E+00   0.000000E+00   0.000000E+00   0.000000E+00   0.000000E+00   0.000000E+00   0.000000E+00   0.000000E+00   0.000000E+00   0.000000E+00   0.000000E+00   0.000000E+00   0.000000E+00   0.000000E+00   0.000000E+00   0.000000E+00   0.000000E+00   0.000000E+00
   7.748100E+00   7.748100E+00   7.748100E+00   7.748100E+00   7.748100E+00   7.748100E+00   7.748100E+00   7.748100E+00   7.748100E+00   7.748100E+00   7.425300E+00   7.425300E+00   7.425300E+00   7.425300E+00   7.425300E+00   7.425300E+00   7.425300E+00   7.425300E+00   7.425300E+00   7.425300E+00   7.172400E+00   7.172400E+00   7.172400E+00   7.172400E+00   7.172400E+00   7.172400E+00   7.172400E+00   7.172400E+00   7.172400E+00   7.172400E+00   7.224400E+00   7.224400E+00   7.224400E+00   7.224400E+00   7.224400E+00   7.224400E+00   7.224400E+00   7.224400E+00   7.224400E+00   7.224400E+00   7.046900E+00   7.046900E+00   7.046900E+00   7.046900E+00   7.046900E+00   7.046900E+00   7.046900E+00   7.046900E+00   7.046900E+00   7.046900E+00   5.947000E+00   5.947000E+00   5.947000E+00   5.947000E+00   5.947000E+00   5.947000E+00   5.947000E+00   5.947000E+00   5.947000E+00   5.947000E+00   3.303300E+00   3.303300E+00   3.303300E+00   3.303300E+00   3.303300E+00   3.303300E+00   3.303300E+00   3.303300E+00   3.303300E+00   3.303300E+00   5.413400E-01   5.413400E-01   5.413400E-01   5.413400E-01   5.413400E-01   5.413400E-01   5.413400E-01   5.413400E-01   5.413400E-01   5.413400E-01   0.000000E+00   0.000000E+00   0.000000E+00   0.000000E+00   0.000000E+00   0.000000E+00   0.000000E+00   0.000000E+00   0.000000E+00   0.000000E+00   0.000000E+00   0.000000E+00   0.000000E+00   0.000000E+00   0.000000E+00   0.000000E+00   0.000000E+00   0.000000E+00   0.000000E+00   0.000000E+00   0.000000E+00   0.000000E+00   0.000000E+00   0.000000E+00   0.000000E+00   0.000000E+00   0.000000E+00   0.000000E+00   0.000000E+00   0.000000E+00
   7.748100E+00   7.748100E+00   7.748100E+00   7.748100E+00   7.748100E+00   7.748100E+00   7.748100E+00   7.748100E+00   7.748100E+00   7.748100E+00   7.425300E+00   7.425300E+00   7.425300E+00   7.425300E+00   7.425300E+00   7.425300E+00   7.425300E+00   7.425300E+00   7.425300E+00   7.425300E+00   7.172400E+00   7.172400E+00   7.172400E+00   7.172400E+00   7.172400E+00   7.172400E+00   7.172400E+00   7.172400E+00   7.172400E+00   7.172400E+00   7.224400E+00   7.224400E+00   7.224400E+00   7.224400E+00   7.224400E+00   7.224400E+00   7.224400E+00   7.224400E+00   7.224400E+00   7.224400E+00   7.046900E+00   7.046900E+00   7.046900E+00   7.046900E+00   7.046900E+00   7.046900E+00   7.046900E+00   7.046900E+00   7.046900E+00   7.046900E+00   5.947000E+00   5.947000E+00   5.947000E+00   5.947000E+00   5.947000E+00   5.947000E+00   5.947000E+00   5.947000E+00   5.947000E+00   5.947000E+00   3.303300E+00   3.303300E+00   3.303300E+00   3.303300E+00   3.303300E+00   3.303300E+00   3.303300E+00   3.303300E+00   3.303300E+00   3.303300E+00   5.413400E-01   5.413400E-01   5.413400E-01   5.413400E-01   5.413400E-01   5.413400E-01   5.413400E-01   5.413400E-01   5.413400E-01   5.413400E-01   0.000000E+00   0.000000E+00   0.000000E+00   0.000000E+00   0.000000E+00   0.000000E+00   0.000000E+00   0.000000E+00   0.000000E+00   0.000000E+00   0.000000E+00   0.000000E+00   0.000000E+00   0.000000E+00   0.000000E+00   0.000000E+00   0.000000E+00   0.000000E+00   0.000000E+00   0.000000E+00   0.000000E+00   0.000000E+00   0.000000E+00   0.000000E+00   0.000000E+00   0.000000E+00   0.000000E+00   0.000000E+00   0.000000E+00   0.000000E+00