# WEL package for  MODFLOW-2005, generated by Flopy.
       266         0
       266         0 # stress period 1
         2         6         6       -7.279759
         6        11        11           -40.0
         2         5        15       -7.279759
         6         5        32           -40.0
         2         6        26       -7.279759
         6         6        41           -40.0
         2         6        36       -7.279759
         2         5        45       -7.279759
         6         7        58           -44.0
         2        13        52           -15.0
         2         6        55       -7.279759
         2         6        66       -7.279759
         2         5        75       -7.128595
         2        18         8           -10.0
         2        20         5           -10.0
         6        19        11           -40.0
         2        19         3           -10.0
         6        21         3           -40.0
         2        16         6       -7.279759
         6        13        16           -40.0
         2        16        16       -7.279759
         2        15        25       -7.279759
         6        17        35           -40.0
         6        17        35           -40.0
         2        16        36       -7.279759
         2        13        48           -10.0
         6        17        48           -40.0
         2        15        45       -7.279759
         6        13        59           -10.2
         2        15        55       -7.279759
         2        16        66       -7.279759
         3        15        75       -6.390195
         6        23         2           -40.0
         6        28         1           -40.0
         2        25         5       -7.279759
         6        26        16           -50.5
         6        30        17           -30.0
         6        30        15           -40.0
         6        32        12           -40.0
         6        32        11           -40.0
         2        26        16       -7.279759
         6        28        32           -40.0
         2        25        25       -7.279759
         6        24        32           -40.0
         6        24        34           -40.0
         2        25        36       -7.279759
         2        26        46       -7.279759
         2        25        55       -7.279759
         2        25        65       -7.279759
         3        26        76       -5.582977
         2        35         5       -7.279759
         2        35        15       -7.279759
         6        36        29           -40.0
         2        36        26       -7.279759
         6        42        33           -30.0
         2        35        35       -7.279759
         2        35        46       -7.279759
         2        39        61           -10.0
         6        39        58           -40.0
         2        36        56       -7.279759
         7        38        64           -40.0
         7        35        63           -40.0
         7        41        64           -40.0
         7        41        64           -40.0
         7        41        64           -40.0
         7        42        61           -40.0
         2        35        65       -7.279759
         3        36        76       -3.678908
         2        46         6       -7.275924
         2        45        15       -7.279759
         6        48        28           -40.0
         2        49        24           -10.0
         2        46        25       -7.279759
         6        44        37           -40.0
         2        46        36       -7.279759
         6        48        50           -40.0
         2        45        45       -7.279759
         6        48        55           -28.5
         6        45        54           -50.0
         6        47        57           -50.0
         6        45        59           -20.0
         6        48        60           -40.0
         6        43        56           -40.0
         6        50        54           -40.0
         2        46        56       -7.279759
         7        45        62          -11.25
         3        46        66       -6.655737
         2        55         6       -7.279759
         2        56        16       -7.279759
         2        55        25       -7.279759
         2        56        35       -7.279759
         6        52        49           -35.2
         7        57        51           -40.0
         6        59        44           -40.0
         7        59        51           -40.0
         6        58        50           -40.0
         2        56        46       -7.279759
         7        53        59           -15.0
         7        54        59          -20.75
         7        54        58            -6.3
         7        58        60           -30.0
         7        55        58           -40.0
         2        55        55       -7.279759
         7        54        62           -15.0
         7        53        65           -40.0
         6        56        66       -7.279759
         6        55        75       -1.125732
         2        65         5       -7.279759
         2        66        16       -7.279759
         2        66        26       -7.279759
         6        69        42           -40.0
         2        65        35       -7.279759
         7        70        51           -43.2
         6        71        44           -10.0
         2        67        49           -10.0
         6        65        49           -40.0
         7        71        48           -40.0
         7        70        51           -40.0
         2        66        46       -7.279759
         7        63        55           -40.0
         7        66        56           -40.0
         7        64        52           -40.0
         6        69        62           -10.0
         6        65        55       -7.279759
         7        63        61           -26.0
         6        65        65       -7.279759
         6        66        76       -3.213169
         2        76         6       -7.279759
         2        75        15       -7.279759
         2        76        26       -7.279759
         2        75        35       -7.279759
         7        76        44           -18.0
         7        78        52           -40.0
         7        80        51           -40.0
         6        75        45       -7.279759
         7        75        54           -40.0
         6        80        59            -5.0
         7        79        53           -40.0
         7        76        52           -40.0
         7        78        59           -40.0
         6        76        56       -7.279759
         6        75        65       -7.279759
         6        76        75        -5.23222
         2        86         6       -7.279759
         2        85        15       -7.279759
         7        84        26           -60.0
         7        90        25           -40.0
         2        85        26       -7.279759
         3        86        36       -7.279759
         7        89        50           -43.0
         7        89        45           -50.0
         7        82        50           -50.0
         7        82        49           -40.0
         7        88        52           -40.0
         7        90        52           -40.0
         6        85        45       -7.279759
         7        90        60           -15.0
         7        88        56           -40.0
         7        86        62           -40.0
         7        89        63           -40.0
         7        85        55           -40.0
         6        86        56       -7.279759
         7        92        63           -20.0
         7        88        66           -40.0
         6        86        66        -7.20885
         6        85        75       -1.347862
         2        95         5       -6.969209
         2        96        16       -7.279759
         2        95        25       -7.279759
         7        99        33           -30.0
         7        94        35           -40.0
         7       100        37           -40.0
         3        96        36       -7.279759
         7        96        45           -27.5
         7       100        49            -1.7
         7        97        52           -40.0
         7        98        48           -40.0
         6        96        46       -7.279759
         7        95        60           -50.0
         7        93        52           -40.0
         7        95        55           -40.0
         7        99        55           -40.0
         7        98        54           -40.0
         7        97        61           -40.0
         6        97        60           -10.0
         6        95        55       -7.279759
         7        99        63           -12.0
         6        96        66       -7.279759
         6        95        75       -1.902336
         2       105         5       -0.490634
         2       106        15       -6.648051
         2       106        26       -7.279759
         7       105        34           -40.0
         3       105        35       -7.279759
         6       108        45           -30.0
         6       106        46       -7.279759
         6       103        52           -10.0
         7       111        54           -40.0
         6       105        55       -7.279759
         7       112        64           -39.0
         7       113        62           -30.0
         7       105        63           -30.0
         7       107        68           -40.0
         7       106        71           -40.0
         7       106        71           -40.0
         6       105        65       -7.279759
         6       106        76       -3.989769
         2       116         6       -6.058563
         2       115        15       -7.279759
         7       122        23           -40.0
         2       116        26       -7.279759
         7       114        32           -40.0
         3       115        35       -7.279759
         7       119        49           -30.0
         7       116        48           -40.0
         6       115        45           -10.0
         6       115        45       -7.279759
         7       112        55           -33.0
         7       120        56           -40.0
         7       121        53           -40.0
         6       116        56       -7.279759
         7       112        66           -30.0
         6       115        65       -7.279759
         6       115        76       -5.240898
         2       126         6       -7.279759
         2       125        15       -7.279759
         2       125        25       -7.279759
         2       126        36       -7.279759
         7       126        51           -50.0
         7       131        46           -40.0
         7       131        45           -40.0
         7       121        50           -40.0
         3       125        45       -7.279759
         7       131        52           -50.0
         7       131        52           -30.0
         7       124        54           -24.5
         7       130        58           -13.5
         7       122        59           -40.0
         7       123        53           -40.0
         6       125        55       -7.279759
         7       131        62           -40.0
         7       132        61           -40.0
         7       125        63           -40.0
         6       126        66       -7.279759
         7       123        77           -80.0
         6       125        75       -5.092498
         7       136         3           -40.0
         2       134         7           -10.0
         2       135         6       -7.279759
         2       136        16       -7.279759
         2       135        25       -7.279759
         2       136        35       -7.279759
         7       137        51           -30.0
         7       137        47           -40.0
         7       135        47           -40.0
         7       136        44           -40.0
         7       133        43           -40.0
         7       131        49           -40.0
         7       134        50           -40.0
         3       136        46       -7.279759
         7       135        60           -30.0
         6       135        55       -7.279759
         7       133        62           -30.0
         7       133        66           -40.0
         6       136        66       -7.279759
         6       136        76       -3.764076
