[Runing]
MODFLOW=0
MODFLOWError=0
ZoneBudget=1
ZoneBudgetError=0
