--- MT3D BASIC DATA ---
MT3DMS dataset                                                                  
Translated by Visual MODFLOW                                                    
day
m
Kg
1 1 1 0 0 0 0 0 0 0 
0 0 0 0 1 1
1e+30 0 0 0 0
1 1 0 1000 1
0
1 1
