pcf
* control data
restart estimation
18 273 1 0 1
1 1 single point 1 0 0
10 2 0.3 0.02 10
10 10 0.001
0.1
50 0.01 3 3 0.01 3
1 1 1
* parameter groups
Cndct relative 0.02 0 switch 2 parabolic
* parameter data
Kx_10 log factor 0.5 1e-15 1e+29 Cndct 1 0 1
Ky_10 log factor 0.5 1e-15 1e+29 Cndct 1 0 1
Kz_10 log factor 0.05 1e-15 1e+29 Cndct 1 0 1
Kx_11 log factor 0.5 1e-15 1e+29 Cndct 1 0 1
Ky_11 log factor 0.5 1e-15 1e+29 Cndct 1 0 1
Kz_11 log factor 0.05 1e-15 1e+29 Cndct 1 0 1
Kx_12 log factor 0.5 1e-15 1e+29 Cndct 1 0 1
Ky_12 log factor 0.5 1e-15 1e+29 Cndct 1 0 1
Kz_12 log factor 0.05 1e-15 1e+29 Cndct 1 0 1
Kx_13 log factor 0.5 1e-15 1e+29 Cndct 1 0 1
Ky_13 log factor 0.5 1e-15 1e+29 Cndct 1 0 1
Kz_13 log factor 0.05 1e-15 1e+29 Cndct 1 0 1
Kx__8 log factor 0.5 1e-15 1e+29 Cndct 1 0 1
Ky__8 log factor 0.5 1e-15 1e+29 Cndct 1 0 1
Kz__8 log factor 0.05 1e-15 1e+29 Cndct 1 0 1
Kx__9 log factor 0.5 1e-15 1e+29 Cndct 1 0 1
Ky__9 log factor 0.5 1e-15 1e+29 Cndct 1 0 1
Kz__9 log factor 0.05 1e-15 1e+29 Cndct 1 0 1
* observation groups
hds.L6
* observation data
OF000307 -77.06 1 hds.L6
OF000308 -57.3 1 hds.L6
OF000309 -69.5 1 hds.L6
OF000310 -94.8 1 hds.L6
OF000311 -91 1 hds.L6
OF000312 -98.5 1 hds.L6
OF000313 -65.8 1 hds.L6
OF000314 -75 1 hds.L6
OF000315 -61.8 1 hds.L6
OF000316 -82.5 1 hds.L6
OF000317 -58.6 1 hds.L6
OF000318 -95 1 hds.L6
OF000319 -82.5 1 hds.L6
OF000320 -89 1 hds.L6
OF000321 -91.63 1 hds.L6
OF000322 -75 1 hds.L6
OF000324 -93.5 1 hds.L6
OF000325 -99.78 1 hds.L6
OF000326 -76 1 hds.L6
OF000327 -16.2 1 hds.L6
OF000328 -53.8 1 hds.L6
OF000329 -99.25 1 hds.L6
OF000330 -95 1 hds.L6
OF000331 -97 1 hds.L6
OF000332 -83 1 hds.L6
OF000336 -27.5 1 hds.L6
OF000337 -62 1 hds.L6
OF000338 -62 1 hds.L6
OF000339 -80.6 1 hds.L6
OF000340 -46 1 hds.L6
OF000341 -88 1 hds.L6
OF000342 -99.6 1 hds.L6
OF000344 -23 1 hds.L6
OF000345 -88 1 hds.L6
OF000346 -80.2 1 hds.L6
OF000347 -56.9 1 hds.L6
OF000348 -97.2 1 hds.L6
OF000349 -99 1 hds.L6
OF000350 -95.5 1 hds.L6
OF000351 -103.68 1 hds.L6
OF000352 -51 1 hds.L6
OF000353 -96 1 hds.L6
OF000354 -99.7 1 hds.L6
OF000356 -61 1 hds.L6
OF000357 -77.5 1 hds.L6
OF000359 -33 1 hds.L6
OF000360 -89.8 1 hds.L6
OF000361 -88 1 hds.L6
OF000362 -72.5 1 hds.L6
OF000363 -14 1 hds.L6
OF000364 -95.6 1 hds.L6
OF000365 -104 1 hds.L6
OF000366 -77.2 1 hds.L6
OF000367 -52.5 1 hds.L6
OF000368 -51.8 1 hds.L6
OF000369 -85.5 1 hds.L6
OF000370 -17.5 1 hds.L6
OF000372 -45.5 1 hds.L6
OF000373 -17.5 1 hds.L6
OF000374 -94 1 hds.L6
OF000375 -87 1 hds.L6
OF000376 -101.5 1 hds.L6
OF000377 -87.5 1 hds.L6
OF000378 -96.4 1 hds.L6
OF000379 4.25 1 hds.L6
OF000380 -77 1 hds.L6
OF000381 -86.5 1 hds.L6
OF000382 -57 1 hds.L6
OF000383 -57.5 1 hds.L6
OF000384 -57 1 hds.L6
OF000385 -48.5 1 hds.L6
OF000386 -2.7 1 hds.L6
OF000387 -21.8 1 hds.L6
OF000388 -91.3 1 hds.L6
OF000389 -52.62 1 hds.L6
OF000390 -41 1 hds.L6
OF000391 -48 1 hds.L6
OF000392 -61.5 1 hds.L6
OF000393 -50 1 hds.L6
OF000394 -97.5 1 hds.L6
OF000395 -64.5 1 hds.L6
OF000396 -78.5 1 hds.L6
OF000397 -102.8 1 hds.L6
OF000398 -57 1 hds.L6
OF000399 -102.8 1 hds.L6
OF000400 -48.5 1 hds.L6
OF000401 -46 1 hds.L6
OF000402 -99.8 1 hds.L6
OF000403 -2 1 hds.L6
OF000404 -4.5 1 hds.L6
OF000405 -95.7 1 hds.L6
OF000406 -73.7 1 hds.L6
OF000407 -41.68 1 hds.L6
OF000408 -90 1 hds.L6
OF000410 -97 1 hds.L6
OF000411 -40 1 hds.L6
OF000412 -84.5 1 hds.L6
OF000413 -85.7 1 hds.L6
OF000414 -29 1 hds.L6
OF000415 -28.5 1 hds.L6
OF000416 -28.5 1 hds.L6
OF000417 -41.5 1 hds.L6
OF000418 -55 1 hds.L6
OF000419 -40.1 1 hds.L6
OF000420 -48.9 1 hds.L6
OF000422 -5.5 1 hds.L6
OF000424 -89 1 hds.L6
OF000425 -28.4 1 hds.L6
OF000426 -21.2 1 hds.L6
OF000427 -49.5 1 hds.L6
OF000428 -101.4 1 hds.L6
OF000429 -82.5 1 hds.L6
OF000430 -90.5 1 hds.L6
OF000431 -68.5 1 hds.L6
OF000432 -58.5 1 hds.L6
OF000433 -94.5 1 hds.L6
OF000434 -49.5 1 hds.L6
OF000435 -65.8 1 hds.L6
OF000436 -7.5 1 hds.L6
OF000437 -95.5 1 hds.L6
OF000438 -68.55 1 hds.L6
OF000439 -59.6 1 hds.L6
OF000441 -97.5 1 hds.L6
OF000442 -65.5 1 hds.L6
OF000443 -102.5 1 hds.L6
OF000445 -39.2 1 hds.L6
OF000446 -73.77 1 hds.L6
OF000447 -50 1 hds.L6
OF000448 -81 1 hds.L6
OF000449 -41.5 1 hds.L6
OF000450 -5 1 hds.L6
OF000451 -63.5 1 hds.L6
OF000452 -64.8 1 hds.L6
OF000453 -64 1 hds.L6
OF000454 -28.5 1 hds.L6
OF000455 0.15 1 hds.L6
OF000456 -15.5 1 hds.L6
OF000457 0 1 hds.L6
OF000459 -54.5 1 hds.L6
OF000460 -59.5 1 hds.L6
OF000461 -54.3 1 hds.L6
OF000462 -100.9 1 hds.L6
OF000463 -29.5 1 hds.L6
OF000464 12 1 hds.L6
OF000465 -75.2 1 hds.L6
OF000466 -82.5 1 hds.L6
OF000467 -88 1 hds.L6
OF000468 -75.6 1 hds.L6
OF000469 -91 1 hds.L6
OF000470 -24.5 1 hds.L6
OF000471 -67.8 1 hds.L6
OF000472 -87.5 1 hds.L6
OF000473 -86.8 1 hds.L6
OF000474 0.5 1 hds.L6
OF000475 -50 1 hds.L6
OF000476 -50.5 1 hds.L6
OF000477 -82 1 hds.L6
OF000478 -92.5 1 hds.L6
OF000479 -75.5 1 hds.L6
OF000480 -80.8 1 hds.L6
OF000481 -93 1 hds.L6
OF000482 -82 1 hds.L6
OF000483 -104.2 1 hds.L6
OF000484 -85.5 1 hds.L6
OF000485 -64 1 hds.L6
OF000486 -98 1 hds.L6
OF000487 -95.5 1 hds.L6
OF000488 -70 1 hds.L6
OF000489 -66.8 1 hds.L6
OF000490 -63 1 hds.L6
OF000491 -92.6 1 hds.L6
OF000492 -94.9 1 hds.L6
OF000493 0.1 1 hds.L6
OF000494 -88.97 1 hds.L6
OF000495 -82.5 1 hds.L6
OF000496 -90.5 1 hds.L6
OF000497 -93.1 1 hds.L6
OF000498 -105.5 1 hds.L6
OF000499 -100 1 hds.L6
OF000500 -0.5 1 hds.L6
OF000501 -64.5 1 hds.L6
OF000502 -63.3 1 hds.L6
OF000504 -0.4 1 hds.L6
OF000508 -24.2 1 hds.L6
OF000509 1.3 1 hds.L6
OF000511 -19.16 1 hds.L6
OF000512 -73.8 1 hds.L6
OF000513 6 1 hds.L6
OF000514 0.75 1 hds.L6
OF000515 -81.2 1 hds.L6
OF000516 -6.3 1 hds.L6
OF000517 -64.5 1 hds.L6
OF000518 -33.9 1 hds.L6
OF000519 -32.9 1 hds.L6
OF000522 -89.78 1 hds.L6
OF000523 2.8 1 hds.L6
OF000525 -0.5 1 hds.L6
OF000526 -91.5 1 hds.L6
OF000527 -89.5 1 hds.L6
OF000528 -73.7 1 hds.L6
OF000529 -86.64 1 hds.L6
OF000531 -0.4 1 hds.L6
OF000532 -38.5 1 hds.L6
OF000533 -46 1 hds.L6
OF000534 -56 1 hds.L6
OF000535 -98.9 1 hds.L6
OF000536 -84.5 1 hds.L6
OF000537 -46.1 1 hds.L6
OF000538 -87.5 1 hds.L6
OF000539 -58.3 1 hds.L6
OF000540 -28.2 1 hds.L6
OF000541 -101.5 1 hds.L6
OF000542 -59.8 1 hds.L6
OF000543 -47.2 1 hds.L6
OF000544 -80.5 1 hds.L6
OF000545 2.4 1 hds.L6
OF000546 -47.9 1 hds.L6
OF000547 -105 1 hds.L6
OF000548 -30.32 1 hds.L6
OF000549 -41 1 hds.L6
OF000550 -99.92 1 hds.L6
OF000551 -95 1 hds.L6
OF000552 -51.5 1 hds.L6
OF000554 -68.8 1 hds.L6
OF000555 -87.2 1 hds.L6
OF000556 3.9 1 hds.L6
OF000557 -53.5 1 hds.L6
OF000558 -5.5 1 hds.L6
OF000559 -60.5 1 hds.L6
OF000560 -12.8 1 hds.L6
OF000561 -84.56 1 hds.L6
OF000562 -86.1 1 hds.L6
OF000563 -108 1 hds.L6
OF000564 -17.5 1 hds.L6
OF000565 -57 1 hds.L6
OF000566 -51.8 1 hds.L6
OF000567 -49 1 hds.L6
OF000568 -93.5 1 hds.L6
OF000569 -90 1 hds.L6
OF000570 -67.8 1 hds.L6
OF000572 -96 1 hds.L6
OF000573 -79.5 1 hds.L6
OF000574 -91.9 1 hds.L6
OF000575 -95 1 hds.L6
OF000576 -78.5 1 hds.L6
OF000577 -65.5 1 hds.L6
OF000578 -49.5 1 hds.L6
OF000579 -68 1 hds.L6
OF000580 -40.1 1 hds.L6
OF000581 -100 1 hds.L6
OF000584 -99 1 hds.L6
OF000585 -93.5 1 hds.L6
OF000586 -39.5 1 hds.L6
OF000589 -54.8 1 hds.L6
OF000590 -84.5 1 hds.L6
OF000591 -103.5 1 hds.L6
OF000592 -64 1 hds.L6
OF000593 -49.2 1 hds.L6
OF000595 -105 1 hds.L6
OF000596 -69.2 1 hds.L6
OF000597 -57.5 1 hds.L6
OF000598 -52 1 hds.L6
OF000599 -69.5 1 hds.L6
OF000600 -101.78 1 hds.L6
OF000601 -91.2 1 hds.L6
OF000602 -95.5 1 hds.L6
OF000603 -75.5 1 hds.L6
OF000604 -65 1 hds.L6
OF000605 -67.5 1 hds.L6
OF000606 -67 1 hds.L6
OF000607 4.2 1 hds.L6
OF000608 3.2 1 hds.L6
OF000609 -34.2 1 hds.L6
* model command line
"C:\Program Files (x86)\Visual MODFLOW\dosmess.exe" 8455106 1101
* model input/output 
Modelo_Centro_v8_2007_2009_calibrado.mf.tpl Modelo_Centro_v8_2007_2009_calibrado.mf.pl
Modelo_Centro_v8_2007_2009_calibrado.inh Modelo_Centro_v8_2007_2009_calibrado.hob
